
#######################################################################
#
#                 Cambridge Crystallographic Data Centre
#                                CCDC 
#
#######################################################################
#
# If this CIF has been generated from an entry in the Cambridge 
# Structural Database, then it will include bibliographic, chemical, 
# crystal, experimental, refinement or atomic coordinate data resulting 
# from the CCDC's data processing and validation procedures.
#
#######################################################################

data_BOZNAH
_chemical_formula_moiety         'C24 H28 Br2 Co1 N4 O4'
_chemical_name_systematic        dibromo-tetrakis(pyridin-3-ylmethanol)-cobalt
_symmetry_cell_setting           tetragonal
_symmetry_space_group_name_H-M   'P 4/n n c'
_symmetry_Int_Tables_number      126
_space_group_name_Hall           '-P 4a 2bc'
loop_
_symmetry_equiv_pos_site_id
_symmetry_equiv_pos_as_xyz
1 x,y,z
2 1/2-x,1/2-y,z
3 x,1/2-y,1/2-z
4 1/2-x,y,1/2-z
5 1/2-y,1/2-x,1/2-z
6 y,x,1/2-z
7 y,1/2-x,z
8 1/2-y,x,z
9 -x,-y,-z
10 1/2+x,1/2+y,-z
11 -x,1/2+y,1/2+z
12 1/2+x,-y,1/2+z
13 1/2+y,1/2+x,1/2+z
14 -y,-x,1/2+z
15 -y,1/2+x,-z
16 1/2+y,-x,-z
_cell_length_a                   11.6117(6)
_cell_length_b                   11.6117(6)
_cell_length_c                   9.7396(9)
_cell_angle_alpha                90
_cell_angle_beta                 90
_cell_angle_gamma                90
_cell_volume                     1313.21
_exptl_crystal_colour            purple
_exptl_crystal_description       prismatic
_cell_formula_units_Z            2
loop_
_atom_site_label
_atom_site_type_symbol
_atom_site_fract_x
_atom_site_fract_y
_atom_site_fract_z
Co1 Co 0.2500 0.2500 0.2500
Br1 Br 0.2500 0.2500 0.51798(7)
C1 C 0.0315(15) 0.1173(12) 0.178(3)
H1 H 0.0148 0.1843 0.1254
C2 C -0.0549(10) 0.0322(8) 0.1770(19)
C3 C -0.0400(7) -0.0628(7) 0.2638(14)
H2 H -0.0969 -0.1215 0.2674
C4 C 0.0567(7) -0.0708(10) 0.3433(19)
H3 H 0.0703 -0.1364 0.3992
C5 C 0.1335(12) 0.0188(15) 0.340(3)
H4 H 0.1958 0.0212 0.4027
O1 O -0.2141(6) 0.1725(7) 0.1197(8)
H5 H -0.2664 0.1873 0.0628
C6 C -0.1631(6) 0.0638(7) 0.0871(10)
H6 H -0.1399 0.0644 -0.0107
H7 H -0.2219 0.0028 0.0987
N1 N 0.118(2) 0.117(2) 0.2314(14)
C1E C 0.1173(12) 0.0315(15) 0.322(3)
H1E H 0.1843 0.0148 0.3746
C2E C 0.0322(8) -0.0549(10) 0.3230(19)
C3E C -0.0628(7) -0.0400(7) 0.2362(14)
H2E H -0.1215 -0.0969 0.2326
C4E C -0.0708(10) 0.0567(7) 0.1567(19)
H3E H -0.1364 0.0703 0.1008
C5E C 0.0188(15) 0.1335(12) 0.160(3)
H4E H 0.0212 0.1958 0.0973
O1E O 0.1725(7) -0.2141(6) 0.3803(8)
H5E H 0.1873 -0.2664 0.4372
C6E C 0.0638(7) -0.1631(6) 0.4129(10)
H6E H 0.0644 -0.1399 0.5107
H7E H 0.0028 -0.2219 0.4013
N1E N 0.117(2) 0.118(2) 0.2686(14)
C1A C 0.4685(15) 0.3827(12) 0.178(3)
H1A H 0.4852 0.3157 0.1254
C2A C 0.5549(10) 0.4678(8) 0.1770(19)
C3A C 0.5400(7) 0.5628(7) 0.2638(14)
H2A H 0.5969 0.6215 0.2674
C4A C 0.4433(7) 0.5708(10) 0.3433(19)
H3A H 0.4297 0.6364 0.3992
C5A C 0.3665(12) 0.4812(15) 0.340(3)
H4A H 0.3042 0.4788 0.4027
O1A O 0.7141(6) 0.3275(7) 0.1197(8)
H5A H 0.7664 0.3127 0.0628
C6A C 0.6631(6) 0.4362(7) 0.0871(10)
H6A H 0.6399 0.4356 -0.0107
H7A H 0.7219 0.4972 0.0987
N1A N 0.382(2) 0.383(2) 0.2314(14)
C1D C 0.3827(12) 0.4685(15) 0.322(3)
H1D H 0.3157 0.4852 0.3746
C2D C 0.4678(8) 0.5549(10) 0.3230(19)
C3D C 0.5628(7) 0.5400(7) 0.2362(14)
H2D H 0.6215 0.5969 0.2326
C4D C 0.5708(10) 0.4433(7) 0.1567(19)
H3D H 0.6364 0.4297 0.1008
C5D C 0.4812(15) 0.3665(12) 0.160(3)
H4D H 0.4788 0.3042 0.0973
O1D O 0.3275(7) 0.7141(6) 0.3803(8)
H5D H 0.3127 0.7664 0.4372
C6D C 0.4362(7) 0.6631(6) 0.4129(10)
H6D H 0.4356 0.6399 0.5107
H7D H 0.4972 0.7219 0.4013
N1D N 0.383(2) 0.382(2) 0.2686(14)
Br1B Br 0.2500 0.2500 -0.01798(7)
C1B C 0.0315(15) 0.3827(12) 0.322(3)
H1B H 0.0148 0.3157 0.3746
C2B C -0.0549(10) 0.4678(8) 0.3230(19)
C3B C -0.0400(7) 0.5628(7) 0.2362(14)
H2B H -0.0969 0.6215 0.2326
C4B C 0.0567(7) 0.5708(10) 0.1567(19)
H3B H 0.0703 0.6364 0.1008
C5B C 0.1335(12) 0.4812(15) 0.160(3)
H4B H 0.1958 0.4788 0.0973
O1B O -0.2141(6) 0.3275(7) 0.3803(8)
H5B H -0.2664 0.3127 0.4372
C6B C -0.1631(6) 0.4362(7) 0.4129(10)
H6B H -0.1399 0.4356 0.5107
H7B H -0.2219 0.4972 0.4013
N1B N 0.118(2) 0.383(2) 0.2686(14)
C1F C 0.1173(12) 0.4685(15) 0.178(3)
H1F H 0.1843 0.4852 0.1254
C2F C 0.0322(8) 0.5549(10) 0.1770(19)
C3F C -0.0628(7) 0.5400(7) 0.2638(14)
H2F H -0.1215 0.5969 0.2674
C4F C -0.0708(10) 0.4433(7) 0.3433(19)
H3F H -0.1364 0.4297 0.3992
C5F C 0.0188(15) 0.3665(12) 0.340(3)
H4F H 0.0212 0.3042 0.4027
O1F O 0.1725(7) 0.7141(6) 0.1197(8)
H5F H 0.1873 0.7664 0.0628
C6F C 0.0638(7) 0.6631(6) 0.0871(10)
H6F H 0.0644 0.6399 -0.0107
H7F H 0.0028 0.7219 0.0987
N1F N 0.117(2) 0.382(2) 0.2314(14)
C1C C 0.4685(15) 0.1173(12) 0.322(3)
H1C H 0.4852 0.1843 0.3746
C2C C 0.5549(10) 0.0322(8) 0.3230(19)
C3C C 0.5400(7) -0.0628(7) 0.2362(14)
H2C H 0.5969 -0.1215 0.2326
C4C C 0.4433(7) -0.0708(10) 0.1567(19)
H3C H 0.4297 -0.1364 0.1008
C5C C 0.3665(12) 0.0188(15) 0.160(3)
H4C H 0.3042 0.0212 0.0973
O1C O 0.7141(6) 0.1725(7) 0.3803(8)
H5C H 0.7664 0.1873 0.4372
C6C C 0.6631(6) 0.0638(7) 0.4129(10)
H6C H 0.6399 0.0644 0.5107
H7C H 0.7219 0.0028 0.4013
N1C N 0.382(2) 0.117(2) 0.2686(14)
C1G C 0.3827(12) 0.0315(15) 0.178(3)
H1G H 0.3157 0.0148 0.1254
C2G C 0.4678(8) -0.0549(10) 0.1770(19)
C3G C 0.5628(7) -0.0400(7) 0.2638(14)
H2G H 0.6215 -0.0969 0.2674
C4G C 0.5708(10) 0.0567(7) 0.3433(19)
H3G H 0.6364 0.0703 0.3992
C5G C 0.4812(15) 0.1335(12) 0.340(3)
H4G H 0.4788 0.1958 0.4027
O1G O 0.3275(7) -0.2141(6) 0.1197(8)
H5G H 0.3127 -0.2664 0.0628
C6G C 0.4362(7) -0.1631(6) 0.0871(10)
H6G H 0.4356 -0.1399 -0.0107
H7G H 0.4972 -0.2219 0.0987
N1G N 0.383(2) 0.118(2) 0.2314(14)
loop_
_geom_bond_atom_site_label_1
_geom_bond_atom_site_label_2
_geom_bond_site_symmetry_1
_geom_bond_site_symmetry_2
Co1 Br1 1_555 1_555
C1 H1 1_555 1_555
H1 C5E 1_555 1_555
C2 C1 1_555 1_555
C3 C2 1_555 1_555
H2 C3 1_555 1_555
C4 C3 1_555 1_555
H3 C4 1_555 1_555
C5 C4 1_555 1_555
H4 C5 1_555 1_555
O1 H5 1_555 1_555
C6 C2 1_555 1_555
H6 C6 1_555 1_555
H7 C6 1_555 1_555
N1 Co1 1_555 1_555
C1E C4 1_555 1_555
H1E C5 1_555 1_555
C2E C3 1_555 1_555
C3E C2 1_555 1_555
H2E C3 1_555 1_555
C4E C1 1_555 1_555
H3E C2 1_555 1_555
C5E C2 1_555 1_555
H4E C1 1_555 1_555
O1E H5E 1_555 1_555
C6E C4 1_555 1_555
H6E C6E 1_555 1_555
H7E C6E 1_555 1_555
N1E Co1 1_555 1_555
C1A H1A 1_555 1_555
H1A C5D 1_555 1_555
C2A C1A 1_555 1_555
C3A C2A 1_555 1_555
H2A C3A 1_555 1_555
C4A C3A 1_555 1_555
H3A C4A 1_555 1_555
C5A C4A 1_555 1_555
H4A C5A 1_555 1_555
O1A H5A 1_555 1_555
C6A C2A 1_555 1_555
H6A C6A 1_555 1_555
H7A C6A 1_555 1_555
N1A Co1 1_555 1_555
C1D C4A 1_555 1_555
H1D C5A 1_555 1_555
C2D C3A 1_555 1_555
C3D C2A 1_555 1_555
H2D C3A 1_555 1_555
C4D C1A 1_555 1_555
H3D C2A 1_555 1_555
C5D C2A 1_555 1_555
H4D C1A 1_555 1_555
O1D H5D 1_555 1_555
C6D C4A 1_555 1_555
H6D C6D 1_555 1_555
H7D C6D 1_555 1_555
N1D Co1 1_555 1_555
Br1B Co1 1_555 1_555
C1B H1B 1_555 1_555
H1B C5F 1_555 1_555
C2B C1B 1_555 1_555
C3B C2B 1_555 1_555
H2B C3B 1_555 1_555
C4B C3B 1_555 1_555
H3B C4B 1_555 1_555
C5B C4B 1_555 1_555
H4B C5B 1_555 1_555
O1B H5B 1_555 1_555
C6B C2B 1_555 1_555
H6B C6B 1_555 1_555
H7B C6B 1_555 1_555
N1B Co1 1_555 1_555
C1F C4B 1_555 1_555
H1F C5B 1_555 1_555
C2F C3B 1_555 1_555
C3F C2B 1_555 1_555
H2F C3B 1_555 1_555
C4F C1B 1_555 1_555
H3F C2B 1_555 1_555
C5F C2B 1_555 1_555
H4F C1B 1_555 1_555
O1F H5F 1_555 1_555
C6F C4B 1_555 1_555
H6F C6F 1_555 1_555
H7F C6F 1_555 1_555
N1F Co1 1_555 1_555
C1C H1C 1_555 1_555
H1C C5G 1_555 1_555
C2C C1C 1_555 1_555
C3C C2C 1_555 1_555
H2C C3C 1_555 1_555
C4C C3C 1_555 1_555
H3C C4C 1_555 1_555
C5C C4C 1_555 1_555
H4C C5C 1_555 1_555
O1C H5C 1_555 1_555
C6C C2C 1_555 1_555
H6C C6C 1_555 1_555
H7C C6C 1_555 1_555
N1C Co1 1_555 1_555
C1G C4C 1_555 1_555
H1G C5C 1_555 1_555
C2G C3C 1_555 1_555
C3G C2C 1_555 1_555
H2G C3C 1_555 1_555
C4G C1C 1_555 1_555
H3G C2C 1_555 1_555
C5G C2C 1_555 1_555
H4G C1C 1_555 1_555
O1G H5G 1_555 1_555
C6G C4C 1_555 1_555
H6G C6G 1_555 1_555
H7G C6G 1_555 1_555
N1G Co1 1_555 1_555
C1 N1 1_555 1_555
C1 N1E 1_555 1_555
C3 C4E 1_555 1_555
H2 C3E 1_555 1_555
C4 C3E 1_555 1_555
H3 C2E 1_555 1_555
C5 N1 1_555 1_555
C5 C2E 1_555 1_555
C5 N1E 1_555 1_555
H4 C1E 1_555 1_555
O1 C6 1_555 1_555
C6 C4E 1_555 1_555
N1 C1E 1_555 1_555
N1 C5E 1_555 1_555
C1E H1E 1_555 1_555
C1E C2E 1_555 1_555
C1E N1E 1_555 1_555
C2E C3E 1_555 1_555
C2E C6E 1_555 1_555
C3E H2E 1_555 1_555
C3E C4E 1_555 1_555
C4E H3E 1_555 1_555
C4E C5E 1_555 1_555
C5E H4E 1_555 1_555
C5E N1E 1_555 1_555
O1E C6E 1_555 1_555
C1A N1A 1_555 1_555
C1A N1D 1_555 1_555
C3A C4D 1_555 1_555
H2A C3D 1_555 1_555
C4A C3D 1_555 1_555
H3A C2D 1_555 1_555
C5A N1A 1_555 1_555
C5A C2D 1_555 1_555
C5A N1D 1_555 1_555
H4A C1D 1_555 1_555
O1A C6A 1_555 1_555
C6A C4D 1_555 1_555
N1A C1D 1_555 1_555
N1A C5D 1_555 1_555
C1D H1D 1_555 1_555
C1D C2D 1_555 1_555
C1D N1D 1_555 1_555
C2D C3D 1_555 1_555
C2D C6D 1_555 1_555
C3D H2D 1_555 1_555
C3D C4D 1_555 1_555
C4D H3D 1_555 1_555
C4D C5D 1_555 1_555
C5D H4D 1_555 1_555
C5D N1D 1_555 1_555
O1D C6D 1_555 1_555
C1B N1B 1_555 1_555
C1B N1F 1_555 1_555
C3B C4F 1_555 1_555
H2B C3F 1_555 1_555
C4B C3F 1_555 1_555
H3B C2F 1_555 1_555
C5B N1B 1_555 1_555
C5B C2F 1_555 1_555
C5B N1F 1_555 1_555
H4B C1F 1_555 1_555
O1B C6B 1_555 1_555
C6B C4F 1_555 1_555
N1B C1F 1_555 1_555
N1B C5F 1_555 1_555
C1F H1F 1_555 1_555
C1F C2F 1_555 1_555
C1F N1F 1_555 1_555
C2F C3F 1_555 1_555
C2F C6F 1_555 1_555
C3F H2F 1_555 1_555
C3F C4F 1_555 1_555
C4F H3F 1_555 1_555
C4F C5F 1_555 1_555
C5F H4F 1_555 1_555
C5F N1F 1_555 1_555
O1F C6F 1_555 1_555
C1C N1C 1_555 1_555
C1C N1G 1_555 1_555
C3C C4G 1_555 1_555
H2C C3G 1_555 1_555
C4C C3G 1_555 1_555
H3C C2G 1_555 1_555
C5C N1C 1_555 1_555
C5C C2G 1_555 1_555
C5C N1G 1_555 1_555
H4C C1G 1_555 1_555
O1C C6C 1_555 1_555
C6C C4G 1_555 1_555
N1C C1G 1_555 1_555
N1C C5G 1_555 1_555
C1G H1G 1_555 1_555
C1G C2G 1_555 1_555
C1G N1G 1_555 1_555
C2G C3G 1_555 1_555
C2G C6G 1_555 1_555
C3G H2G 1_555 1_555
C3G C4G 1_555 1_555
C4G H3G 1_555 1_555
C4G C5G 1_555 1_555
C5G H4G 1_555 1_555
C5G N1G 1_555 1_555
O1G C6G 1_555 1_555

#END
