
#######################################################################
#
#                 Cambridge Crystallographic Data Centre
#                                CCDC 
#
#######################################################################
#
# If this CIF has been generated from an entry in the Cambridge 
# Structural Database, then it will include bibliographic, chemical, 
# crystal, experimental, refinement or atomic coordinate data resulting 
# from the CCDC's data processing and validation procedures.
#
#######################################################################

data_EABHIY
_chemical_name_common            
'bis((4R,5R)-4,5-bis(bis(p-Chlorophenyl)(hydroxy)methyl)-2,2-dimethyl-1,3-dioxolane) tris(methanol) clathrate'
_chemical_formula_moiety         '2(C31 H26 Cl4 O4),3(C1 H4 O1)'
_chemical_name_systematic        
"bis((4R,5R)-2,2-Dimethyl-\a,\a,\a',\a'-tetrakis(p-chlorophenyl)-1,3-dioxolane-4,5-dimethanol) tris(methanol) clathrate"
_symmetry_cell_setting           triclinic
_symmetry_space_group_name_H-M   'P 1'
_symmetry_Int_Tables_number      1
_space_group_name_Hall           'P 1'
loop_
_symmetry_equiv_pos_site_id
_symmetry_equiv_pos_as_xyz
1 x,y,z
_cell_length_a                   12.032(3)
_cell_length_b                   12.924(2)
_cell_length_c                   12.934(7)
_cell_angle_alpha                110.30(2)
_cell_angle_beta                 116.12(2)
_cell_angle_gamma                92.80(2)
_cell_volume                     1644.45
_cell_formula_units_Z            1
loop_
_atom_site_label
_atom_site_type_symbol
_atom_site_fract_x
_atom_site_fract_y
_atom_site_fract_z
O1 O 0.3148 0.6069 0.5760
C1 C 0.4260(5) 0.5604(4) 0.5914(5)
C2 C 0.5405(5) 0.6660(4) 0.6709(5)
C3 C 0.5513(5) 0.7433(4) 0.6064(5)
C4 C 0.4858(5) 0.8424(4) 0.6155(5)
O2 O 0.3511(3) 0.7977(3) 0.5498(4)
C5 C 0.4125(5) 0.4956(4) 0.4610(5)
C6 C 0.3252(6) 0.5100(5) 0.3559(5)
C7 C 0.3159(6) 0.4538(6) 0.2387(6)
C8 C 0.3940(6) 0.3821(6) 0.2278(6)
C9 C 0.4798(7) 0.3627(5) 0.3291(6)
C10 C 0.4882(6) 0.4201(5) 0.4456(5)
C11 C 0.4318(5) 0.4802(4) 0.6550(5)
C12 C 0.3377(6) 0.3795(5) 0.5867(5)
C13 C 0.3364(6) 0.3015(5) 0.6369(6)
C14 C 0.4310(6) 0.3258(5) 0.7579(6)
C15 C 0.5217(6) 0.4251(5) 0.8290(5)
C16 C 0.5226(5) 0.5029(5) 0.7771(5)
C17 C 0.5321(5) 0.9242(4) 0.7539(5)
C18 C 0.4549(6) 0.9234(5) 0.8058(6)
C19 C 0.4963(7) 0.9945(6) 0.9301(6)
C20 C 0.6157(7) 1.0638(5) 1.0016(6)
C21 C 0.6953(6) 1.0661(5) 0.9518(6)
C22 C 0.6527(6) 0.9959(5) 0.8271(6)
C23 C 0.5067(5) 0.9085(4) 0.5437(5)
C24 C 0.4482(6) 0.9988(5) 0.5410(6)
C25 C 0.4504(8) 1.0537(6) 0.4671(8)
C26 C 0.5109(9) 1.0177(6) 0.3984(7)
C27 C 0.5726(8) 0.9328(6) 0.4018(7)
C28 C 0.5689(6) 0.8768(5) 0.4750(6)
O3 O 0.6570(3) 0.6292(3) 0.7008(4)
C29 C 0.7486(5) 0.7067(5) 0.7037(6)
C30 C 0.8582(7) 0.7656(7) 0.8320(8)
C31 C 0.7865(8) 0.6413(7) 0.6074(9)
O4 O 0.6846(3) 0.7878(3) 0.6684(4)
Cl1 Cl 0.3855(2) 0.3124(2) 0.0818(2)
Cl2 Cl 0.4352(2) 0.2255(2) 0.8217(2)
Cl3 Cl 0.6688(2) 1.1506(2) 1.1589(2)
Cl4 Cl 0.5070(4) 1.0820(2) 0.2994(3)
H1 H 0.2948 0.6202 0.6468
H2 H 0.5271 0.7113 0.7463
H3 H 0.5046 0.6925 0.5102
H4 H 0.3368 0.7321 0.5600
H5 H 0.2625 0.5591 0.3646
H6 H 0.2486 0.4663 0.1620
H7 H 0.5304 0.2995 0.3151
H8 H 0.5497 0.4059 0.5223
H9 H 0.2715 0.3603 0.4949
H10 H 0.2664 0.2272 0.5868
H11 H 0.5879 0.4456 0.9216
H12 H 0.5926 0.5761 0.8290
H13 H 0.3632 0.8727 0.7518
H14 H 0.4365 0.9928 0.9681
H15 H 0.7881 1.1146 1.0114
H16 H 0.7128 1.0009 0.7869
H17 H 0.4000 1.0217 0.5905
H18 H 0.4024 1.1219 0.4644
H19 H 0.6180 0.9069 0.3439
H20 H 0.6186 0.8091 0.4811
H21 H 0.9142 0.7155 0.8659
H22 H 0.8259 0.8062 0.8917
H23 H 0.9107 0.8238 0.8237
H24 H 0.8499 0.6933 0.6035
H25 H 0.7009 0.6156 0.5265
H26 H 0.8202 0.5711 0.6139
O5 O 0.2527(5) 0.6479(6) 0.7570(5)
C32 C 0.1668(12) 0.7185(11) 0.7468(13)
H27 H 0.1592 0.7389 0.8264
H28 H 0.0831 0.6877 0.6693
H29 H 0.2151 0.7921 0.7535
O6 O 0.1866(13) 0.5293(10) 0.8605(10)
C33 C 0.1527(14) 0.4172(13) 0.8160(14)
H30 H 0.1608 0.3791 0.7369
H31 H 0.0602 0.3949 0.7946
H32 H 0.2094 0.3914 0.8837
O7 O 0.1691(7) 0.6464(7) 1.0713(6)
C34 C 0.2712(14) 0.7322(13) 1.1541(16)
H33 H 0.3512 0.6995 1.1968
H34 H 0.2547 0.7831 1.2168
H35 H 0.2989 0.7734 1.1091
O8 O 1.0692(3) 0.6171(3) 1.2238(3)
C35 C 0.9345(5) 0.5820(4) 1.1770(5)
C36 C 0.8805(5) 0.6898(5) 1.1822(5)
C37 C 0.8901(5) 0.7665(4) 1.3090(5)
C38 C 1.0114(5) 0.8636(5) 1.4052(5)
O9 O 1.1095(4) 0.8023(3) 1.4193(4)
C39 C 0.8853(5) 0.4945(5) 1.0421(5)
C40 C 0.8544(7) 0.5250(5) 0.9428(6)
C41 C 0.8200(7) 0.4448(6) 0.8222(6)
C42 C 0.8176(8) 0.3369(6) 0.8037(6)
C43 C 0.8507(12) 0.3030(6) 0.8995(8)
C44 C 0.8833(10) 0.3833(6) 1.0178(7)
C45 C 0.9091(5) 0.5276(4) 1.2542(5)
C46 C 0.7857(6) 0.4829(6) 1.2220(6)
C47 C 0.7607(6) 0.4337(6) 1.2900(6)
C48 C 0.8622(6) 0.4264(5) 1.3915(5)
C49 C 0.9852(6) 0.4681(6) 1.4261(6)
C50 C 1.0084(6) 0.5202(5) 1.3576(6)
C51 C 1.0182(5) 0.9191(4) 1.5332(5)
C52 C 0.9161(6) 0.9002(5) 1.5520(6)
C53 C 0.9262(7) 0.9511(6) 1.6709(6)
C54 C 1.0408(7) 1.0209(6) 1.7706(6)
C55 C 1.1434(7) 1.0430(6) 1.7550(6)
C56 C 1.1303(6) 0.9934(6) 1.6360(6)
C57 C 1.0282(5) 0.9536(5) 1.3574(5)
C58 C 0.9731(6) 1.0443(5) 1.3733(6)
C59 C 0.9895(7) 1.1260(5) 1.3319(7)
C60 C 1.0613(7) 1.1154(6) 1.2728(6)
C61 C 1.1170(8) 1.0257(6) 1.2538(7)
C62 C 1.1009(7) 0.9443(6) 1.2975(7)
O10 O 0.7463(3) 0.6559(3) 1.1004(3)
C63 C 0.6922(6) 0.7450(6) 1.1417(6)
C64 C 0.6845(15) 0.8239(10) 1.0742(8)
C65 C 0.5707(8) 0.6986(12) 1.1237(12)
O11 O 0.7816(3) 0.8131(3) 1.2712(3)
Cl5 Cl 0.7720(3) 0.2347(2) 0.6526(2)
Cl6 Cl 0.8310(2) 0.3580(2) 1.4752(2)
Cl7 Cl 1.0556(3) 1.0801(2) 1.9203(2)
Cl8 Cl 1.0825(3) 1.2186(2) 1.2213(2)
H36 H 1.1107 0.6969 1.3092
H37 H 0.9361 0.7371 1.1629
H38 H 0.8940 0.7188 1.3572
H39 H 1.2057 0.8522 1.4927
H40 H 0.8520 0.6081 0.9586
H41 H 0.7955 0.4646 0.7462
H42 H 0.8553 0.2163 0.8861
H43 H 0.9094 0.3563 1.0917
H44 H 0.7115 0.4843 1.1398
H45 H 0.6669 0.4009 1.2647
H46 H 1.0643 0.4579 1.5011
H47 H 1.1013 0.5546 1.3862
H48 H 0.8339 0.8417 1.4773
H49 H 0.8478 0.9379 1.6823
H50 H 1.2320 1.0958 1.8354
H51 H 1.2069 1.0123 1.6195
H52 H 0.9212 1.0526 1.4229
H53 H 0.9459 1.1930 1.3412
H54 H 1.1704 1.0135 1.2079
H55 H 1.1495 0.8781 1.2883
H56 H 0.6242 0.7801 0.9795
H57 H 0.7774 0.8279 1.0897
H58 H 0.6729 0.9041 1.1033
H59 H 0.5140 0.7521 1.1351
H60 H 0.6028 0.6706 1.1937
H61 H 0.5203 0.6306 1.0380
loop_
_geom_bond_atom_site_label_1
_geom_bond_atom_site_label_2
_geom_bond_site_symmetry_1
_geom_bond_site_symmetry_2
O1 C1 1_555 1_555
C1 C2 1_555 1_555
C2 C3 1_555 1_555
C3 C4 1_555 1_555
C4 O2 1_555 1_555
O2 H4 1_555 1_555
C5 C1 1_555 1_555
C6 C5 1_555 1_555
C7 C6 1_555 1_555
C8 C7 1_555 1_555
C9 C8 1_555 1_555
C10 C5 1_555 1_555
C11 C1 1_555 1_555
C12 C11 1_555 1_555
C13 C12 1_555 1_555
C14 C13 1_555 1_555
C15 C14 1_555 1_555
C16 C11 1_555 1_555
C17 C4 1_555 1_555
C18 C17 1_555 1_555
C19 C18 1_555 1_555
C20 C19 1_555 1_555
C21 C20 1_555 1_555
C22 C17 1_555 1_555
C23 C4 1_555 1_555
C24 C23 1_555 1_555
C25 C24 1_555 1_555
C26 C25 1_555 1_555
C27 C26 1_555 1_555
C28 C23 1_555 1_555
O3 C2 1_555 1_555
C29 O3 1_555 1_555
C30 C29 1_555 1_555
C31 C29 1_555 1_555
O4 C3 1_555 1_555
Cl1 C8 1_555 1_555
Cl2 C14 1_555 1_555
Cl3 C20 1_555 1_555
Cl4 C26 1_555 1_555
O5 C32 1_555 1_555
C32 H27 1_555 1_555
O6 C33 1_555 1_555
C33 H30 1_555 1_555
O7 C34 1_555 1_555
C34 H33 1_555 1_555
O8 C35 1_555 1_555
C35 C36 1_555 1_555
C36 C37 1_555 1_555
C37 C38 1_555 1_555
C38 O9 1_555 1_555
O9 H39 1_555 1_555
C39 C35 1_555 1_555
C40 C39 1_555 1_555
C41 C40 1_555 1_555
C42 C41 1_555 1_555
C43 C42 1_555 1_555
C44 C39 1_555 1_555
C45 C35 1_555 1_555
C46 C45 1_555 1_555
C47 C46 1_555 1_555
C48 C47 1_555 1_555
C49 C48 1_555 1_555
C50 C45 1_555 1_555
C51 C38 1_555 1_555
C52 C51 1_555 1_555
C53 C52 1_555 1_555
C54 C53 1_555 1_555
C55 C54 1_555 1_555
C56 C51 1_555 1_555
C57 C38 1_555 1_555
C58 C57 1_555 1_555
C59 C58 1_555 1_555
C60 C59 1_555 1_555
C61 C60 1_555 1_555
C62 C57 1_555 1_555
O10 C36 1_555 1_555
C63 O10 1_555 1_555
C64 C63 1_555 1_555
C65 C63 1_555 1_555
O11 C37 1_555 1_555
Cl5 C42 1_555 1_555
Cl6 C48 1_555 1_555
Cl7 C54 1_555 1_555
Cl8 C60 1_555 1_555
H1 O1 1_555 1_555
H2 C2 1_555 1_555
H3 C3 1_555 1_555
H5 C6 1_555 1_555
H6 C7 1_555 1_555
H7 C9 1_555 1_555
H8 C10 1_555 1_555
H9 C12 1_555 1_555
H10 C13 1_555 1_555
H11 C15 1_555 1_555
H12 C16 1_555 1_555
H13 C18 1_555 1_555
H14 C19 1_555 1_555
H15 C21 1_555 1_555
H16 C22 1_555 1_555
H17 C24 1_555 1_555
H18 C25 1_555 1_555
H19 C27 1_555 1_555
H20 C28 1_555 1_555
H21 C30 1_555 1_555
H22 C30 1_555 1_555
H23 C30 1_555 1_555
H24 C31 1_555 1_555
H25 C31 1_555 1_555
H26 C31 1_555 1_555
H28 C32 1_555 1_555
H29 C32 1_555 1_555
H31 C33 1_555 1_555
H32 C33 1_555 1_555
H34 C34 1_555 1_555
H35 C34 1_555 1_555
H36 O8 1_555 1_555
H37 C36 1_555 1_555
H38 C37 1_555 1_555
H40 C40 1_555 1_555
H41 C41 1_555 1_555
H42 C43 1_555 1_555
H43 C44 1_555 1_555
H44 C46 1_555 1_555
H45 C47 1_555 1_555
H46 C49 1_555 1_555
H47 C50 1_555 1_555
H48 C52 1_555 1_555
H49 C53 1_555 1_555
H50 C55 1_555 1_555
H51 C56 1_555 1_555
H52 C58 1_555 1_555
H53 C59 1_555 1_555
H54 C61 1_555 1_555
H55 C62 1_555 1_555
H56 C64 1_555 1_555
H57 C64 1_555 1_555
H58 C64 1_555 1_555
H59 C65 1_555 1_555
H60 C65 1_555 1_555
H61 C65 1_555 1_555
C9 C10 1_555 1_555
C15 C16 1_555 1_555
C21 C22 1_555 1_555
C27 C28 1_555 1_555
C29 O4 1_555 1_555
C43 C44 1_555 1_555
C49 C50 1_555 1_555
C55 C56 1_555 1_555
C61 C62 1_555 1_555
C63 O11 1_555 1_555

#END
