
#######################################################################
#
#                 Cambridge Crystallographic Data Centre
#                                CCDC 
#
#######################################################################
#
# If this CIF has been generated from an entry in the Cambridge 
# Structural Database, then it will include bibliographic, chemical, 
# crystal, experimental, refinement or atomic coordinate data resulting 
# from the CCDC's data processing and validation procedures.
#
#######################################################################

data_BETZAC
_chemical_formula_moiety         'C28 H28 N4 S4'
_chemical_name_systematic        
3,7,11,15-Tetrathia-1,5,9,13(2,6)-tetrapyridinacyclohexadecaphane
_symmetry_cell_setting           triclinic
_symmetry_space_group_name_H-M   'P -1'
_symmetry_Int_Tables_number      2
_space_group_name_Hall           '-P 1'
loop_
_symmetry_equiv_pos_site_id
_symmetry_equiv_pos_as_xyz
1 x,y,z
2 -x,-y,-z
_cell_length_a                   8.285(1)
_cell_length_b                   9.080(2)
_cell_length_c                   10.086(1)
_cell_angle_alpha                112.55(1)
_cell_angle_beta                 91.459(10)
_cell_angle_gamma                108.57(1)
_cell_volume                     654.747
_exptl_crystal_colour            colorless
_exptl_crystal_description       prismatic
_chemical_melting_point          191-193deg.C
_cell_formula_units_Z            1
_exptl_crystal_recrystallization_method hexane
loop_
_atom_site_label
_atom_site_type_symbol
_atom_site_fract_x
_atom_site_fract_y
_atom_site_fract_z
S1 S 0.23474(7) -0.14010(7) 0.30895(7)
S2 S 0.14869(7) 0.39508(8) 0.10904(6)
N1 N 0.3351(2) 0.2691(2) 0.3499(2)
N2 N 0.4467(2) 0.2269(2) -0.1099(2)
C1 C 0.3465(3) 0.0711(3) 0.4522(2)
C2 C 0.2895(3) 0.2116(3) 0.4522(2)
C3 C 0.2015(3) 0.2834(4) 0.5594(3)
C4 C 0.1707(4) 0.4263(4) 0.5660(3)
C5 C 0.2220(3) 0.4897(3) 0.4638(2)
C6 C 0.2997(3) 0.4049(3) 0.3540(2)
C7 C 0.3458(3) 0.4593(3) 0.2334(3)
C8 C 0.2294(3) 0.3583(3) -0.0617(2)
C9 C 0.2774(3) 0.2014(3) -0.1160(2)
C10 C 0.1516(3) 0.0393(3) -0.1676(3)
C11 C 0.2018(3) -0.0995(3) -0.2133(3)
C12 C 0.3758(3) -0.0753(3) -0.2059(3)
C13 C 0.4939(3) 0.0889(3) -0.1548(2)
C14 C 0.3162(3) -0.1215(3) 0.1480(2)
H1 H 0.4663 0.1018 0.4454
H2 H 0.3324 0.0634 0.5435
H3 H 0.1639 0.2323 0.6255
H4 H 0.1079 0.4759 0.6382
H5 H 0.2081 0.5879 0.4586
H6 H 0.4268 0.4136 0.1853
H7 H 0.3997 0.5808 0.2711
H8 H 0.1329 0.3422 -0.1264
H9 H 0.3276 0.4597 -0.0402
H10 H 0.0324 0.0301 -0.1666
H11 H 0.1107 -0.2090 -0.2562
H12 H 0.4127 -0.1707 -0.2359
H13 H 0.2832 -0.0373 0.1302
H14 H 0.2482 -0.2285 0.0715
C14A C 0.6838(3) 0.1215(3) -0.1480(2)
S1A S 0.76526(7) 0.14010(7) -0.30895(7)
C1A C 0.6535(3) -0.0711(3) -0.4522(2)
C2A C 0.7105(3) -0.2116(3) -0.4522(2)
N1A N 0.6649(2) -0.2691(2) -0.3499(2)
C6A C 0.7003(3) -0.4049(3) -0.3540(2)
C5A C 0.7780(3) -0.4897(3) -0.4638(2)
C4A C 0.8293(4) -0.4263(4) -0.5660(3)
C3A C 0.7985(3) -0.2834(4) -0.5594(3)
H3A H 0.8361 -0.2323 -0.6255
H4A H 0.8921 -0.4759 -0.6382
H5A H 0.7919 -0.5879 -0.4586
C7A C 0.6542(3) -0.4593(3) -0.2334(3)
S2A S 0.85131(7) -0.39508(8) -0.10904(6)
C8A C 0.7706(3) -0.3583(3) 0.0617(2)
C9A C 0.7226(3) -0.2014(3) 0.1160(2)
N2A N 0.5533(2) -0.2269(2) 0.1099(2)
C13A C 0.5061(3) -0.0889(3) 0.1548(2)
C12A C 0.6242(3) 0.0753(3) 0.2059(3)
C11A C 0.7982(3) 0.0995(3) 0.2133(3)
C10A C 0.8484(3) -0.0393(3) 0.1676(3)
H10A H 0.9676 -0.0301 0.1666
H11A H 0.8893 0.2090 0.2562
H12A H 0.5873 0.1707 0.2359
H8A H 0.8671 -0.3422 0.1264
H9A H 0.6724 -0.4597 0.0402
H6A H 0.5732 -0.4136 -0.1853
H7A H 0.6003 -0.5808 -0.2711
H1A H 0.5337 -0.1018 -0.4454
H2A H 0.6676 -0.0634 -0.5435
H13A H 0.7168 0.0373 -0.1302
H14A H 0.7518 0.2285 -0.0715
loop_
_geom_bond_atom_site_label_1
_geom_bond_atom_site_label_2
_geom_bond_site_symmetry_1
_geom_bond_site_symmetry_2
S1 C1 1_555 1_555
S2 C7 1_555 1_555
N1 C2 1_555 1_555
N2 C9 1_555 1_555
C1 C2 1_555 1_555
C2 C3 1_555 1_555
C3 C4 1_555 1_555
C4 C5 1_555 1_555
C5 C6 1_555 1_555
C6 N1 1_555 1_555
C7 C6 1_555 1_555
C8 S2 1_555 1_555
C9 C8 1_555 1_555
C10 C9 1_555 1_555
C11 C10 1_555 1_555
C12 C11 1_555 1_555
C13 N2 1_555 1_555
C14 S1 1_555 1_555
H1 C1 1_555 1_555
H2 C1 1_555 1_555
H3 C3 1_555 1_555
H4 C4 1_555 1_555
H5 C5 1_555 1_555
H6 C7 1_555 1_555
H7 C7 1_555 1_555
H8 C8 1_555 1_555
H9 C8 1_555 1_555
H10 C10 1_555 1_555
H11 C11 1_555 1_555
H12 C12 1_555 1_555
H13 C14 1_555 1_555
H14 C14 1_555 1_555
C14A C13 1_555 1_555
S1A C14A 1_555 1_555
C1A S1A 1_555 1_555
C2A C1A 1_555 1_555
N1A C2A 1_555 1_555
C6A N1A 1_555 1_555
C5A C6A 1_555 1_555
C4A C5A 1_555 1_555
C3A C2A 1_555 1_555
H3A C3A 1_555 1_555
H4A C4A 1_555 1_555
H5A C5A 1_555 1_555
C7A C6A 1_555 1_555
S2A C7A 1_555 1_555
C8A S2A 1_555 1_555
C9A C8A 1_555 1_555
N2A C9A 1_555 1_555
C13A C14 1_555 1_555
C12A C13A 1_555 1_555
C11A C12A 1_555 1_555
C10A C9A 1_555 1_555
H10A C10A 1_555 1_555
H11A C11A 1_555 1_555
H12A C12A 1_555 1_555
H8A C8A 1_555 1_555
H9A C8A 1_555 1_555
H6A C7A 1_555 1_555
H7A C7A 1_555 1_555
H1A C1A 1_555 1_555
H2A C1A 1_555 1_555
H13A C14A 1_555 1_555
H14A C14A 1_555 1_555
C12 C13 1_555 1_555
C4A C3A 1_555 1_555
N2A C13A 1_555 1_555
C11A C10A 1_555 1_555

#END
