
#######################################################################
#
#                 Cambridge Crystallographic Data Centre
#                                CCDC 
#
#######################################################################
#
# If this CIF has been generated from an entry in the Cambridge 
# Structural Database, then it will include bibliographic, chemical, 
# crystal, experimental, refinement or atomic coordinate data resulting 
# from the CCDC's data processing and validation procedures.
#
#######################################################################

data_COVPIN
_chemical_name_common            'Ciprofloxacin hexahydrate'
_chemical_formula_moiety         'C17 H18 F1 N3 O3,6(H2 O1)'
_chemical_name_systematic        
'1-(Cyclopropyl)-6-fluoro-4-oxo-7-(piperazin-1-yl)-1,4-dihydroquinoline-3-carboxylic acid hexahydrate'
_chemical_properties_biological  
'antibacterial activity against Enterobacteriaceae, Pseudomonas aeruginosa, Haemophilus and Neisseria spp. and staphylococci and some other Gram-positive bacteria'
_symmetry_cell_setting           triclinic
_symmetry_space_group_name_H-M   'P -1'
_symmetry_Int_Tables_number      2
_space_group_name_Hall           '-P 1'
loop_
_symmetry_equiv_pos_site_id
_symmetry_equiv_pos_as_xyz
1 x,y,z
2 -x,-y,-z
_cell_length_a                   9.5273(10)
_cell_length_b                   9.972(2)
_cell_length_c                   11.249(2)
_cell_angle_alpha                94.794(13)
_cell_angle_beta                 100.304(10)
_cell_angle_gamma                91.354(11)
_cell_volume                     1047
_exptl_crystal_colour            'pale brown-yellow'
_exptl_crystal_description       needle
_cell_formula_units_Z            2
_exptl_crystal_recrystallization_method 'ammonia solution'
loop_
_atom_site_label
_atom_site_type_symbol
_atom_site_fract_x
_atom_site_fract_y
_atom_site_fract_z
N1 N 0.1704(2) 0.3687(2) 0.5164(2)
C1 C 0.2346(2) 0.3320(2) 0.4102(2)
C2 C 0.3918(3) 0.3173(3) 0.4283(3)
C3 C 0.2930(3) 0.1957(2) 0.3964(2)
C4 C 0.0398(2) 0.3095(2) 0.5284(2)
C5 C 0.2338(2) 0.4656(2) 0.6002(2)
C6 C 0.1815(2) 0.5137(2) 0.7004(2)
C7 C 0.2703(3) 0.6208(2) 0.7851(2)
O1 O 0.4022(2) 0.6225(2) 0.7878(2)
O2 O 0.2073(2) 0.7030(2) 0.8457(2)
C8 C 0.0478(2) 0.4601(2) 0.7205(2)
O3 O -0.0088(2) 0.4980(2) 0.8090(2)
C9 C -0.0206(2) 0.3533(2) 0.6298(2)
C10 C -0.1497(2) 0.2903(2) 0.6425(2)
C11 C -0.2121(2) 0.1906(2) 0.5592(2)
F1 F -0.3322(2) 0.1268(1) 0.5792(1)
C12 C -0.1567(2) 0.1468(2) 0.4549(2)
N2 N -0.2274(2) 0.0411(2) 0.3738(2)
C13 C -0.1500(2) -0.0129(2) 0.2805(2)
C14 C -0.2250(2) -0.1412(2) 0.2148(2)
N3 N -0.3759(2) -0.1169(2) 0.1616(2)
C15 C -0.4517(2) -0.0618(2) 0.2581(2)
C16 C -0.3770(2) 0.0661(2) 0.3206(2)
C17 C -0.0295(2) 0.2088(2) 0.4419(2)
O4 O 0.5140(3) 0.3645(2) 0.8106(3)
O5 O 0.6677(3) 0.7048(2) 0.9366(2)
O6 O -0.1250(3) 0.0624(3) -0.1261(2)
O7 O -0.0500(3) 0.7945(2) 0.9102(2)
O8 O -0.2135(2) 0.4468(3) 0.9414(2)
O9 O -0.3500(2) 0.0888(2) 0.0074(2)
loop_
_geom_bond_atom_site_label_1
_geom_bond_atom_site_label_2
_geom_bond_site_symmetry_1
_geom_bond_site_symmetry_2
N1 C1 1_555 1_555
C1 C2 1_555 1_555
C2 C3 1_555 1_555
C3 C1 1_555 1_555
C4 N1 1_555 1_555
C5 N1 1_555 1_555
C6 C5 1_555 1_555
C7 C6 1_555 1_555
O1 C7 1_555 1_555
O2 C7 1_555 1_555
C8 C6 1_555 1_555
O3 C8 1_555 1_555
C9 C4 1_555 1_555
C10 C9 1_555 1_555
C11 C10 1_555 1_555
F1 C11 1_555 1_555
C12 C11 1_555 1_555
N2 C12 1_555 1_555
C13 N2 1_555 1_555
C14 C13 1_555 1_555
N3 C14 1_555 1_555
C15 N3 1_555 1_555
C16 N2 1_555 1_555
C17 C4 1_555 1_555
C8 C9 1_555 1_555
C12 C17 1_555 1_555
C15 C16 1_555 1_555

#END
