
#######################################################################
#
#                 Cambridge Crystallographic Data Centre
#                                CCDC 
#
#######################################################################
#
# If this CIF has been generated from an entry in the Cambridge 
# Structural Database, then it will include bibliographic, chemical, 
# crystal, experimental, refinement or atomic coordinate data resulting 
# from the CCDC's data processing and validation procedures.
#
#######################################################################

data_EQELIX
_chemical_formula_moiety         'C19 H21 N2 O3 1+,C1 H2 Cl2,B1 F4 1-'
_chemical_name_systematic        
'2-(2,4-dioxo-5-phenyl-1,3-oxazolidin-3-yl)-N-(2-phenylethyl)ethanaminium tetrafluoroborate dichloromethane solvate'
_symmetry_cell_setting           monoclinic
_symmetry_space_group_name_H-M   'P 21/c'
_symmetry_Int_Tables_number      14
_space_group_name_Hall           '-P 2ybc'
loop_
_symmetry_equiv_pos_site_id
_symmetry_equiv_pos_as_xyz
1 x,y,z
2 -x,1/2+y,1/2-z
3 -x,-y,-z
4 x,1/2-y,1/2+z
_cell_length_a                   16.897(4)
_cell_length_b                   12.002(3)
_cell_length_c                   11.276(2)
_cell_angle_alpha                90
_cell_angle_beta                 101.315(7)
_cell_angle_gamma                90
_cell_volume                     2242.3
_exptl_crystal_colour            colorless
_exptl_crystal_description       block
_cell_formula_units_Z            4
loop_
_atom_site_label
_atom_site_type_symbol
_atom_site_fract_x
_atom_site_fract_y
_atom_site_fract_z
O1 O 0.29440(16) 0.7199(2) 0.6200(3)
O2 O 0.36373(16) 0.6515(2) 0.7955(3)
O3 O 0.33079(16) 0.5188(2) 0.4115(3)
N1 N 0.36357(19) 0.5635(2) 0.6137(3)
N2 N 0.52728(19) 0.5624(2) 0.8003(3)
H1 H 0.5070 0.5264 0.8675
H2 H 0.5004 0.6358 0.7855
C1 C 0.3425(2) 0.6457(3) 0.6882(4)
C2 C 0.3270(2) 0.5789(3) 0.4958(4)
C3 C 0.2798(2) 0.6878(3) 0.4940(4)
H3 H 0.3037 0.7450 0.4470
C4 C 0.4146(2) 0.4677(3) 0.6605(4)
H4 H 0.4051 0.4073 0.5996
H5 H 0.3977 0.4398 0.7343
C5 C 0.5034(2) 0.4930(3) 0.6903(4)
H6 H 0.5337 0.4220 0.7018
H7 H 0.5187 0.5323 0.6209
C6 C 0.6163(2) 0.5812(3) 0.8398(4)
H8 H 0.6258 0.6416 0.9007
H9 H 0.6391 0.6051 0.7694
C7 C 0.6590(2) 0.4763(3) 0.8934(4)
H10 H 0.6311 0.4463 0.9559
H11 H 0.6562 0.4193 0.8292
C8 C 0.7460(2) 0.4988(3) 0.9491(4)
C9 C 0.7731(3) 0.4909(4) 1.0729(4)
H12 H 0.7364 0.4706 1.1232
C10 C 0.8528(3) 0.5122(4) 1.1241(4)
H13 H 0.8706 0.5066 1.2092
C11 C 0.9062(3) 0.5413(4) 1.0530(5)
H14 H 0.9611 0.5549 1.0884
C12 C 0.8799(3) 0.5510(4) 0.9294(4)
H15 H 0.9164 0.5741 0.8799
C13 C 0.8006(3) 0.5270(4) 0.8778(4)
H16 H 0.7835 0.5299 0.7924
C14 C 0.1911(3) 0.6787(3) 0.4443(4)
C15 C 0.1366(3) 0.6491(4) 0.5164(4)
H17 H 0.1555 0.6330 0.5997
C16 C 0.0558(3) 0.6431(4) 0.4681(5)
H18 H 0.0192 0.6233 0.5186
C17 C 0.0267(3) 0.6653(4) 0.3477(5)
H19 H -0.0296 0.6632 0.3156
C18 C 0.0807(3) 0.6908(4) 0.2746(5)
H20 H 0.0617 0.7033 0.1907
C19 C 0.1623(3) 0.6983(4) 0.3227(4)
H21 H 0.1988 0.7171 0.2717
Cl1 Cl 0.77732(8) 0.65533(11) 0.37574(13)
Cl2 Cl 0.87319(8) 0.64487(12) 0.61998(13)
C20 C 0.7871(3) 0.7006(4) 0.5266(4)
H22 H 0.7904 0.7830 0.5290
H23 H 0.7387 0.6781 0.5577
F1 F 0.49246(17) 0.7222(2) 0.4709(2)
F2 F 0.52357(14) 0.89478(17) 0.5473(2)
F3 F 0.49010(15) 0.75864(18) 0.6676(2)
F4 F 0.60858(15) 0.7501(2) 0.6035(2)
B1 B 0.5292(3) 0.7789(4) 0.5719(5)
loop_
_geom_bond_atom_site_label_1
_geom_bond_atom_site_label_2
_geom_bond_site_symmetry_1
_geom_bond_site_symmetry_2
O1 C1 1_555 1_555
O2 C1 1_555 1_555
O3 C2 1_555 1_555
N1 C1 1_555 1_555
N2 H1 1_555 1_555
H2 N2 1_555 1_555
C2 N1 1_555 1_555
C3 O1 1_555 1_555
H3 C3 1_555 1_555
C4 N1 1_555 1_555
H4 C4 1_555 1_555
H5 C4 1_555 1_555
C5 N2 1_555 1_555
H6 C5 1_555 1_555
H7 C5 1_555 1_555
C6 N2 1_555 1_555
H8 C6 1_555 1_555
H9 C6 1_555 1_555
C7 C6 1_555 1_555
H10 C7 1_555 1_555
H11 C7 1_555 1_555
C8 C7 1_555 1_555
C9 C8 1_555 1_555
H12 C9 1_555 1_555
C10 C9 1_555 1_555
H13 C10 1_555 1_555
C11 C10 1_555 1_555
H14 C11 1_555 1_555
C12 C11 1_555 1_555
H15 C12 1_555 1_555
C13 C8 1_555 1_555
H16 C13 1_555 1_555
C14 C3 1_555 1_555
C15 C14 1_555 1_555
H17 C15 1_555 1_555
C16 C15 1_555 1_555
H18 C16 1_555 1_555
C17 C16 1_555 1_555
H19 C17 1_555 1_555
C18 C17 1_555 1_555
H20 C18 1_555 1_555
C19 C14 1_555 1_555
H21 C19 1_555 1_555
Cl1 C20 1_555 1_555
Cl2 C20 1_555 1_555
C20 H22 1_555 1_555
H23 C20 1_555 1_555
F1 B1 1_555 1_555
F2 B1 1_555 1_555
F3 B1 1_555 1_555
F4 B1 1_555 1_555
C2 C3 1_555 1_555
C4 C5 1_555 1_555
C12 C13 1_555 1_555
C18 C19 1_555 1_555

#END
