
#######################################################################
#
#                 Cambridge Crystallographic Data Centre
#                                CCDC 
#
#######################################################################
#
# If this CIF has been generated from an entry in the Cambridge 
# Structural Database, then it will include bibliographic, chemical, 
# crystal, experimental, refinement or atomic coordinate data resulting 
# from the CCDC's data processing and validation procedures.
#
#######################################################################

data_FUYYON
_chemical_formula_moiety         'H10 B4'
_chemical_name_systematic        Tetraborane(10)
_symmetry_cell_setting           monoclinic
_symmetry_space_group_name_H-M   'P 21/n'
_symmetry_Int_Tables_number      14
_space_group_name_Hall           '-P 2yn'
loop_
_symmetry_equiv_pos_site_id
_symmetry_equiv_pos_as_xyz
1 x,y,z
2 1/2-x,1/2+y,1/2-z
3 -x,-y,-z
4 1/2+x,1/2-y,1/2+z
_cell_length_a                   8.68(2)
_cell_length_b                   10.14(3)
_cell_length_c                   5.78(2)
_cell_angle_alpha                90
_cell_angle_beta                 105.9(3)
_cell_angle_gamma                90
_cell_volume                     489.265
_cell_formula_units_Z            4
loop_
_atom_site_label
_atom_site_type_symbol
_atom_site_fract_x
_atom_site_fract_y
_atom_site_fract_z
B1 B 0.277 0.414 0.172
B2 B 0.116 0.296 0.176
B3 B 0.267 0.271 0.012
B4 B 0.244 0.427 -0.156
H1 H 0.393 0.433 0.324
H2 H 0.169 0.427 0.243
H3 H 0.142 0.241 0.354
H4 H -0.001 0.323 0.061
H5 H 0.148 0.211 0.001
H6 H 0.366 0.206 0.072
H7 H 0.227 0.296 -0.188
H8 H 0.356 0.457 -0.202
H9 H 0.130 0.450 -0.254
H10 H 0.247 0.500 0.031
loop_
_geom_bond_atom_site_label_1
_geom_bond_atom_site_label_2
_geom_bond_site_symmetry_1
_geom_bond_site_symmetry_2
B1 B2 1_555 1_555
B2 B3 1_555 1_555
B3 B1 1_555 1_555
B4 B1 1_555 1_555
H1 B1 1_555 1_555
H2 B1 1_555 1_555
H3 B2 1_555 1_555
H4 B2 1_555 1_555
H5 B2 1_555 1_555
H6 B3 1_555 1_555
H7 B3 1_555 1_555
H8 B4 1_555 1_555
H9 B4 1_555 1_555
H10 B1 1_555 1_555
B2 H2 1_555 1_555
B3 B4 1_555 1_555
B3 H5 1_555 1_555
B4 H7 1_555 1_555
B4 H10 1_555 1_555

#END
