
#######################################################################
#
#                 Cambridge Crystallographic Data Centre
#                                CCDC 
#
#######################################################################
#
# If this CIF has been generated from an entry in the Cambridge 
# Structural Database, then it will include bibliographic, chemical, 
# crystal, experimental, refinement or atomic coordinate data resulting 
# from the CCDC's data processing and validation procedures.
#
#######################################################################

data_FUYYON05
_chemical_formula_moiety         'H10 B4'
_chemical_name_systematic        arachno-Tetraborane(10)
_symmetry_cell_setting           monoclinic
_symmetry_space_group_name_H-M   'P 21/n'
_symmetry_Int_Tables_number      14
_space_group_name_Hall           '-P 2yn'
loop_
_symmetry_equiv_pos_site_id
_symmetry_equiv_pos_as_xyz
1 x,y,z
2 1/2-x,1/2+y,1/2-z
3 -x,-y,-z
4 1/2+x,1/2-y,1/2+z
_cell_length_a                   5.7890(16)
_cell_length_b                   10.135(3)
_cell_length_c                   8.690(2)
_cell_angle_alpha                90
_cell_angle_beta                 106.037(6)
_cell_angle_gamma                90
_cell_volume                     490.014
_exptl_crystal_colour            colorless
_exptl_crystal_description       cylindric
_chemical_melting_point          '-120 deg.C'
_cell_formula_units_Z            4
loop_
_atom_site_label
_atom_site_type_symbol
_atom_site_fract_x
_atom_site_fract_y
_atom_site_fract_z
B1 B 0.17557(7) -0.20368(4) 0.61381(5)
B2 B 0.01362(6) -0.23012(3) 0.76730(4)
B3 B -0.15493(6) -0.07237(4) 0.74455(5)
B4 B 0.17440(5) -0.08569(3) 0.77597(4)
H1 H 0.35656 -0.26357 0.63583
H2 H 0.06097 -0.17872 0.48223
H3 H 0.25607 -0.07965 0.65226
H4 H 0.33029 -0.06820 0.89443
H5 H 0.02434 0.01097 0.73861
H6 H -0.21178 -0.03953 0.85915
H7 H -0.27899 -0.04271 0.61713
H8 H -0.21236 -0.20162 0.72630
H9 H 0.07156 -0.29771 0.88207
H10 H 0.01467 -0.29212 0.63786
loop_
_geom_bond_atom_site_label_1
_geom_bond_atom_site_label_2
_geom_bond_site_symmetry_1
_geom_bond_site_symmetry_2
B1 B2 1_555 1_555
B2 B3 1_555 1_555
B3 B4 1_555 1_555
B4 B1 1_555 1_555
H1 B1 1_555 1_555
H2 B1 1_555 1_555
H3 B1 1_555 1_555
H4 B4 1_555 1_555
H5 B3 1_555 1_555
H6 B3 1_555 1_555
H7 B3 1_555 1_555
H8 B2 1_555 1_555
H9 B2 1_555 1_555
H10 B1 1_555 1_555
B2 B4 1_555 1_555
B2 H10 1_555 1_555
B3 H8 1_555 1_555
B4 H3 1_555 1_555
B4 H5 1_555 1_555

#END
