loop_
_symmetry_equiv_pos_as_xyz
'x, y, z'
loop_
_atom_type_symbol
_atom_type_oxidation_number
Si4+ 4
O2- -2
loop_
_publ_author_name
'd'Amour, H.'
'Denner, W.'
'Schulz, H.'
_cell_length_a 4.765(2)
_cell_length_b 4.765(2)
_cell_length_c 5.296(3)
_cell_angle_alpha 90.
_cell_angle_beta 90.
_cell_angle_gamma 120.
_cell_volume 104.14
_cell_formula_units_Z 3
_symmetry_space_group_name_H-M 'P 32 2 1'
_symmetry_Int_Tables_number 154
loop_
_atom_site_label
_atom_site_type_symbol
_atom_site_fract_x
_atom_site_fract_y
_atom_site_fract_z
_atom_site_B_iso_or_equiv
O1        O         0.409          0.295          0.233          1.000          
O2        O         0.409          0.295          0.767          1.000          
O3        O         0.409          0.705          0.433667       1.000          
O4        O         0.409          0.705          0.566333       1.000          
O5        O         0.591          0              0.100333       1.000          
O6        O         0.591          0              0.899667       1.000          
Si1       Si        0.456          0              0.3333         1.000          
Si2       Si        0.456          0              0.333367       1.000          
Si3       Si        0.456          0              0.666633       1.000          
Si4       Si        0.456          0              0.6667         1.000          
Si5       Si        0.544          0              3.33333e-05    1.000          
Si6       Si        0.544          0              0.999967       1.000          


#END