
#######################################################################
#
#                 Cambridge Crystallographic Data Centre
#                                CCDC 
#
#######################################################################
#
# If this CIF has been generated from an entry in the Cambridge 
# Structural Database, then it will include bibliographic, chemical, 
# crystal, experimental, refinement or atomic coordinate data resulting 
# from the CCDC's data processing and validation procedures.
#
#######################################################################

data_CABBEO
_chemical_formula_moiety         'C18 H18 Cl1 N1 O2 S1'
_chemical_name_systematic        
(Z)-2-(Rs)-(Benzylsulfinyl)-3-chloro-N-((R)-1-phenylethyl)acrylamide
_symmetry_cell_setting           monoclinic
_symmetry_space_group_name_H-M   'P 21'
_symmetry_Int_Tables_number      4
_space_group_name_Hall           'P 2yb'
loop_
_symmetry_equiv_pos_site_id
_symmetry_equiv_pos_as_xyz
1 x,y,z
2 -x,1/2+y,-z
_cell_length_a                   5.8018(6)
_cell_length_b                   18.291(3)
_cell_length_c                   8.1019(13)
_cell_angle_alpha                90
_cell_angle_beta                 93.218(11)
_cell_angle_gamma                90
_cell_volume                     858.424
_exptl_crystal_colour            colorless
_exptl_crystal_description       plate
_chemical_melting_point          '137-138 deg.C'
_cell_formula_units_Z            2
_exptl_crystal_recrystallization_method ethanol
loop_
_atom_site_label
_atom_site_type_symbol
_atom_site_fract_x
_atom_site_fract_y
_atom_site_fract_z
C1 C 0.7989(11) 0.9146(3) 0.3988(7)
O1 O 0.9710(8) 0.9500(3) 0.3687(6)
C2 C 0.7967(10) 0.8337(3) 0.3782(7)
C3 C 0.9587(11) 0.8045(4) 0.2854(9)
H1 H 1.0575 0.8365 0.2347
Cl1 Cl 0.9954(4) 0.71329(12) 0.2544(3)
N1 N 0.6076(9) 0.9463(3) 0.4519(6)
H2 H 0.4891 0.9198 0.4698
C4 C 0.5982(10) 1.0248(3) 0.4795(7)
H3 H 0.7450 1.0395 0.5356
C5 C 0.4082(12) 1.0408(4) 0.5958(8)
H4 H 0.4018 1.0924 0.6164
H5 H 0.4398 1.0154 0.6983
H6 H 0.2628 1.0247 0.5464
C6 C 0.5724(9) 1.0666(3) 0.3201(7)
C7 C 0.3784(10) 1.0585(3) 0.2115(7)
H7 H 0.2602 1.0271 0.2384
C8 C 0.3613(12) 1.0967(4) 0.0650(8)
H8 H 0.2323 1.0899 -0.0068
C9 C 0.5297(13) 1.1445(4) 0.0226(8)
H9 H 0.5146 1.1706 -0.0759
C10 C 0.7234(11) 1.1533(3) 0.1295(8)
H10 H 0.8403 1.1852 0.1026
C11 C 0.7418(10) 1.1146(3) 0.2751(8)
H11 H 0.8722 1.1211 0.3457
S1 S 0.6000(3) 0.77152(8) 0.4689(2)
O2 O 0.3893(7) 0.8135(2) 0.5076(6)
C12 C 0.7661(10) 0.7574(3) 0.6647(7)
H12 H 0.6944 0.7185 0.7249
H13 H 0.9202 0.7414 0.6412
C13 C 0.7856(11) 0.8232(3) 0.7724(7)
C14 C 0.9728(11) 0.8701(4) 0.7707(8)
H14 H 1.0939 0.8595 0.7041
C15 C 0.9810(13) 0.9320(4) 0.8664(9)
H15 H 1.1083 0.9628 0.8638
C16 C 0.8073(14) 0.9492(4) 0.9646(8)
H16 H 0.8164 0.9913 1.0290
C17 C 0.6179(13) 0.9044(4) 0.9688(8)
H17 H 0.4980 0.9160 1.0356
C18 C 0.6067(11) 0.8414(4) 0.8723(8)
H18 H 0.4782 0.8111 0.8745
loop_
_geom_bond_atom_site_label_1
_geom_bond_atom_site_label_2
_geom_bond_site_symmetry_1
_geom_bond_site_symmetry_2
C1 O1 1_555 1_555
C2 C1 1_555 1_555
C3 C2 1_555 1_555
H1 C3 1_555 1_555
Cl1 C3 1_555 1_555
N1 C1 1_555 1_555
H2 N1 1_555 1_555
C4 N1 1_555 1_555
H3 C4 1_555 1_555
C5 C4 1_555 1_555
H4 C5 1_555 1_555
H5 C5 1_555 1_555
H6 C5 1_555 1_555
C6 C4 1_555 1_555
C7 C6 1_555 1_555
H7 C7 1_555 1_555
C8 C7 1_555 1_555
H8 C8 1_555 1_555
C9 C8 1_555 1_555
H9 C9 1_555 1_555
C10 C9 1_555 1_555
H10 C10 1_555 1_555
C11 C6 1_555 1_555
H11 C11 1_555 1_555
S1 C2 1_555 1_555
O2 S1 1_555 1_555
C12 S1 1_555 1_555
H12 C12 1_555 1_555
H13 C12 1_555 1_555
C13 C12 1_555 1_555
C14 C13 1_555 1_555
H14 C14 1_555 1_555
C15 C14 1_555 1_555
H15 C15 1_555 1_555
C16 C15 1_555 1_555
H16 C16 1_555 1_555
C17 C16 1_555 1_555
H17 C17 1_555 1_555
C18 C13 1_555 1_555
H18 C18 1_555 1_555
C10 C11 1_555 1_555
C17 C18 1_555 1_555

#END
