
#######################################################################
#
#                 Cambridge Crystallographic Data Centre
#                                CCDC 
#
#######################################################################
#
# If this CIF has been generated from an entry in the Cambridge 
# Structural Database, then it will include bibliographic, chemical, 
# crystal, experimental, refinement or atomic coordinate data resulting 
# from the CCDC's data processing and validation procedures.
#
#######################################################################

data_AFAXEK
_chemical_formula_moiety         'C24 H46 Li1 N4 P1 Si2'
_chemical_name_systematic        
(Di-t-butyl-N-trimethylsilyl-P-(trimethylsilylamino)phosphinimidato)-bis(pyridine)-lithium(i)
_symmetry_cell_setting           monoclinic
_symmetry_space_group_name_H-M   'C 2/c'
_symmetry_Int_Tables_number      15
_space_group_name_Hall           '-C 2yn'
loop_
_symmetry_equiv_pos_site_id
_symmetry_equiv_pos_as_xyz
1 x,y,z
2 1/2+x,1/2+y,z
3 x,-y,1/2+z
4 1/2+x,1/2-y,1/2+z
5 -x,-y,-z
6 1/2-x,1/2-y,-z
7 -x,y,1/2-z
8 1/2-x,1/2+y,1/2-z
_cell_length_a                   8.8980(2)
_cell_length_b                   19.3848(5)
_cell_length_c                   17.5894(3)
_cell_angle_alpha                90
_cell_angle_beta                 92.3020(10)
_cell_angle_gamma                90
_cell_volume                     3031.48
_exptl_crystal_colour            colorless
_exptl_crystal_description       needle
_cell_formula_units_Z            4
loop_
_atom_site_label
_atom_site_type_symbol
_atom_site_fract_x
_atom_site_fract_y
_atom_site_fract_z
Li1 Li 0.5000 0.3058(3) 0.2500
N1 N 0.4007(2) 0.38824(11) 0.19516(12)
N2 N 0.6009(3) 0.23292(12) 0.17865(14)
Si1 Si 0.28204(9) 0.37396(5) 0.12070(5)
P1 P 0.5000 0.43581(5) 0.2500
C1 C 0.6270(4) 0.49019(16) 0.19230(18)
C2 C 0.5443(5) 0.5240(2) 0.1241(2)
H1 H 0.6170 0.5478 0.0929
H2 H 0.4711 0.5574 0.1421
H3 H 0.4918 0.4885 0.0935
C3 C 0.7419(4) 0.4403(2) 0.1608(2)
H4 H 0.8064 0.4650 0.1261
H5 H 0.6892 0.4029 0.1333
H6 H 0.8038 0.4209 0.2029
C4 C 0.7120(5) 0.5450(2) 0.2390(2)
H7 H 0.7636 0.5233 0.2831
H8 H 0.6408 0.5796 0.2565
H9 H 0.7861 0.5674 0.2074
C5 C 0.1425(4) 0.3061(2) 0.1454(2)
H10 H 0.0808 0.3230 0.1863
H11 H 0.1960 0.2643 0.1622
H12 H 0.0778 0.2956 0.1005
C6 C 0.1668(4) 0.44924(19) 0.0852(2)
H13 H 0.2338 0.4859 0.0684
H14 H 0.1059 0.4666 0.1262
H15 H 0.1007 0.4345 0.0423
C7 C 0.3810(4) 0.33967(17) 0.03652(16)
H16 H 0.4395 0.2987 0.0517
H17 H 0.4486 0.3751 0.0176
H18 H 0.3066 0.3272 -0.0038
C8 C 0.5152(4) 0.18181(15) 0.15133(19)
H19 H 0.4204 0.1744 0.1729
C9 C 0.5570(4) 0.13899(17) 0.09324(19)
H20 H 0.4924 0.1030 0.0752
C10 C 0.6932(5) 0.14945(19) 0.06234(19)
H21 H 0.7246 0.1212 0.0218
C11 C 0.7832(4) 0.20072(19) 0.0902(2)
H22 H 0.8791 0.2085 0.0699
C12 C 0.7343(4) 0.24129(17) 0.14827(19)
H23 H 0.7985 0.2769 0.1676
N1F N 0.5993(2) 0.38824(11) 0.30484(12)
N2F N 0.3991(3) 0.23292(12) 0.32135(14)
C8F C 0.4848(4) 0.18181(15) 0.34867(19)
H19F H 0.5796 0.1744 0.3271
C9F C 0.4430(4) 0.13899(17) 0.40676(19)
H20F H 0.5076 0.1030 0.4248
C10F C 0.3068(5) 0.14945(19) 0.43766(19)
H21F H 0.2754 0.1212 0.4782
C11F C 0.2168(4) 0.20072(19) 0.4098(2)
H22F H 0.1209 0.2085 0.4301
C12F C 0.2657(4) 0.24129(17) 0.35173(19)
H23F H 0.2015 0.2769 0.3324
Si1F Si 0.71796(9) 0.37396(5) 0.37930(5)
C5F C 0.8575(4) 0.3061(2) 0.3546(2)
H10F H 0.9192 0.3230 0.3137
H11F H 0.8040 0.2643 0.3378
H12F H 0.9222 0.2956 0.3995
C6F C 0.8332(4) 0.44924(19) 0.4148(2)
H13F H 0.7662 0.4859 0.4316
H14F H 0.8941 0.4666 0.3738
H15F H 0.8993 0.4345 0.4577
C7F C 0.6190(4) 0.33967(17) 0.46348(16)
H16F H 0.5605 0.2987 0.4483
H17F H 0.5514 0.3751 0.4824
H18F H 0.6934 0.3272 0.5038
C1F C 0.3730(4) 0.49019(16) 0.30770(18)
C2F C 0.4557(5) 0.5240(2) 0.3759(2)
H1F H 0.3830 0.5478 0.4071
H2F H 0.5289 0.5574 0.3579
H3F H 0.5082 0.4885 0.4065
C3F C 0.2581(4) 0.4403(2) 0.3392(2)
H4F H 0.1936 0.4650 0.3739
H5F H 0.3108 0.4029 0.3667
H6F H 0.1962 0.4209 0.2971
C4F C 0.2880(5) 0.5450(2) 0.2610(2)
H7F H 0.2364 0.5233 0.2169
H8F H 0.3592 0.5796 0.2435
H9F H 0.2139 0.5674 0.2926
loop_
_geom_bond_atom_site_label_1
_geom_bond_atom_site_label_2
_geom_bond_site_symmetry_1
_geom_bond_site_symmetry_2
Li1 N1 1_555 1_555
N1 Si1 1_555 1_555
N2 Li1 1_555 1_555
Si1 C5 1_555 1_555
P1 N1 1_555 1_555
C1 P1 1_555 1_555
C2 C1 1_555 1_555
H1 C2 1_555 1_555
H2 C2 1_555 1_555
H3 C2 1_555 1_555
C3 C1 1_555 1_555
H4 C3 1_555 1_555
H5 C3 1_555 1_555
H6 C3 1_555 1_555
C4 C1 1_555 1_555
H7 C4 1_555 1_555
H8 C4 1_555 1_555
H9 C4 1_555 1_555
C5 H10 1_555 1_555
H11 C5 1_555 1_555
H12 C5 1_555 1_555
C6 Si1 1_555 1_555
H13 C6 1_555 1_555
H14 C6 1_555 1_555
H15 C6 1_555 1_555
C7 Si1 1_555 1_555
H16 C7 1_555 1_555
H17 C7 1_555 1_555
H18 C7 1_555 1_555
C8 N2 1_555 1_555
H19 C8 1_555 1_555
C9 C8 1_555 1_555
H20 C9 1_555 1_555
C10 C9 1_555 1_555
H21 C10 1_555 1_555
C11 C10 1_555 1_555
H22 C11 1_555 1_555
C12 N2 1_555 1_555
H23 C12 1_555 1_555
N1F Li1 1_555 1_555
N2F Li1 1_555 1_555
C8F N2F 1_555 1_555
H19F C8F 1_555 1_555
C9F C8F 1_555 1_555
H20F C9F 1_555 1_555
C10F C9F 1_555 1_555
H21F C10F 1_555 1_555
C11F C10F 1_555 1_555
H22F C11F 1_555 1_555
C12F N2F 1_555 1_555
H23F C12F 1_555 1_555
Si1F N1F 1_555 1_555
C5F Si1F 1_555 1_555
H10F C5F 1_555 1_555
H11F C5F 1_555 1_555
H12F C5F 1_555 1_555
C6F Si1F 1_555 1_555
H13F C6F 1_555 1_555
H14F C6F 1_555 1_555
H15F C6F 1_555 1_555
C7F Si1F 1_555 1_555
H16F C7F 1_555 1_555
H17F C7F 1_555 1_555
H18F C7F 1_555 1_555
C1F P1 1_555 1_555
C2F C1F 1_555 1_555
H1F C2F 1_555 1_555
H2F C2F 1_555 1_555
H3F C2F 1_555 1_555
C3F C1F 1_555 1_555
H4F C3F 1_555 1_555
H5F C3F 1_555 1_555
H6F C3F 1_555 1_555
C4F C1F 1_555 1_555
H7F C4F 1_555 1_555
H8F C4F 1_555 1_555
H9F C4F 1_555 1_555
P1 N1F 1_555 1_555
C11 C12 1_555 1_555
C11F C12F 1_555 1_555

#END
