
#######################################################################
#
#                 Cambridge Crystallographic Data Centre
#                                CCDC 
#
#######################################################################
#
# If this CIF has been generated from an entry in the Cambridge 
# Structural Database, then it will include bibliographic, chemical, 
# crystal, experimental, refinement or atomic coordinate data resulting 
# from the CCDC's data processing and validation procedures.
#
#######################################################################

data_BABBOX
_chemical_formula_moiety         'C18 H16 N4 O1'
_chemical_name_systematic        
4-(1H-Benzimidazol-2-yl)-1,5-dimethyl-2-phenyl-1,2-dihydro-3H-pyrazol-3-one
_symmetry_cell_setting           triclinic
_symmetry_space_group_name_H-M   'P -1'
_symmetry_Int_Tables_number      2
_space_group_name_Hall           '-P 1'
loop_
_symmetry_equiv_pos_site_id
_symmetry_equiv_pos_as_xyz
1 x,y,z
2 -x,-y,-z
_cell_length_a                   7.1969(5)
_cell_length_b                   7.4570(5)
_cell_length_c                   14.4426(10)
_cell_angle_alpha                103.409(3)
_cell_angle_beta                 91.158(4)
_cell_angle_gamma                95.516(4)
_cell_volume                     749.751
_exptl_crystal_colour            yellow
_exptl_crystal_description       needle
_cell_formula_units_Z            2
loop_
_atom_site_label
_atom_site_type_symbol
_atom_site_fract_x
_atom_site_fract_y
_atom_site_fract_z
O1 O 0.36496(16) 0.41305(17) 0.58195(8)
N1 N -0.09465(19) 0.28202(19) 0.62210(10)
N2 N 0.08566(19) 0.3619(2) 0.65385(10)
N3 N 0.3051(2) 0.2923(2) 0.37399(11)
N4 N 0.0291(2) 0.13073(19) 0.32305(10)
C1 C 0.1506(2) 0.3840(2) 0.75065(12)
C2 C 0.0927(3) 0.5224(3) 0.82106(14)
C3 C 0.1546(3) 0.5414(3) 0.91418(15)
C4 C 0.2779(3) 0.4268(4) 0.93586(16)
C5 C 0.3390(3) 0.2919(3) 0.86512(16)
C6 C 0.2745(3) 0.2683(3) 0.77181(14)
C7 C 0.1446(3) 0.1251(2) 0.24674(12)
C8 C 0.1103(3) 0.0372(3) 0.15056(13)
C9 C 0.2484(3) 0.0554(3) 0.08887(15)
C10 C 0.4201(4) 0.1559(3) 0.11999(15)
C11 C 0.4579(3) 0.2420(3) 0.21490(14)
C12 C 0.3170(3) 0.2252(2) 0.27704(12)
C13 C -0.1012(2) 0.2332(2) 0.52686(12)
C14 C -0.2780(3) 0.1510(3) 0.47189(18)
C15 C -0.2453(3) 0.2734(4) 0.68634(17)
C16 C 0.1955(2) 0.3561(2) 0.57560(11)
C17 C 0.0736(2) 0.2742(2) 0.49470(11)
C18 C 0.1312(2) 0.2329(2) 0.39733(12)
H1 H 0.004(3) 0.598(3) 0.8012(15)
H2 H 0.117(3) 0.644(3) 0.9659(18)
H3 H 0.384(3) 0.364(3) 0.4115(15)
H4 H 0.321(3) 0.433(3) 1.001(2)
H5 H 0.426(3) 0.212(3) 0.8769(17)
H6 H 0.309(3) 0.169(3) 0.7206(14)
H7 H -0.013(3) -0.032(3) 0.1288(14)
H8 H 0.227(3) 0.002(3) 0.0229(16)
H9 H 0.519(3) 0.170(3) 0.0716(16)
H10 H 0.580(3) 0.306(3) 0.2386(15)
H11 H -0.271(4) 0.157(4) 0.404(2)
H12 H -0.312(4) 0.023(4) 0.476(2)
H13 H -0.384(4) 0.211(3) 0.4997(17)
H14 H -0.351(5) 0.177(5) 0.653(2)
H15 H -0.288(4) 0.384(4) 0.705(2)
H16 H -0.207(3) 0.233(4) 0.740(2)
loop_
_geom_bond_atom_site_label_1
_geom_bond_atom_site_label_2
_geom_bond_site_symmetry_1
_geom_bond_site_symmetry_2
O1 C16 1_555 1_555
N1 N2 1_555 1_555
N2 C1 1_555 1_555
N3 C12 1_555 1_555
N4 C7 1_555 1_555
C1 C2 1_555 1_555
C2 C3 1_555 1_555
C3 C4 1_555 1_555
C4 C5 1_555 1_555
C5 C6 1_555 1_555
C6 C1 1_555 1_555
C7 C8 1_555 1_555
C8 C9 1_555 1_555
C9 C10 1_555 1_555
C10 C11 1_555 1_555
C11 C12 1_555 1_555
C12 C7 1_555 1_555
C13 N1 1_555 1_555
C14 C13 1_555 1_555
C15 N1 1_555 1_555
C16 N2 1_555 1_555
C17 C13 1_555 1_555
C18 N3 1_555 1_555
H1 C2 1_555 1_555
H2 C3 1_555 1_555
H3 N3 1_555 1_555
H4 C4 1_555 1_555
H5 C5 1_555 1_555
H6 C6 1_555 1_555
H7 C8 1_555 1_555
H8 C9 1_555 1_555
H9 C10 1_555 1_555
H10 C11 1_555 1_555
H11 C14 1_555 1_555
H12 C14 1_555 1_555
H13 C14 1_555 1_555
H14 C15 1_555 1_555
H15 C15 1_555 1_555
H16 C15 1_555 1_555
N4 C18 1_555 1_555
C16 C17 1_555 1_555
C17 C18 1_555 1_555

#END
