
#######################################################################
#
#                 Cambridge Crystallographic Data Centre
#                                CCDC 
#
#######################################################################
#
# If this CIF has been generated from an entry in the Cambridge 
# Structural Database, then it will include bibliographic, chemical, 
# crystal, experimental, refinement or atomic coordinate data resulting 
# from the CCDC's data processing and validation procedures.
#
#######################################################################

data_BIWLID
_chemical_formula_moiety         'C12 H12 Br1 Cl3 N2 Ni1 O1'
_chemical_name_systematic        
Aqua-bromo-chloro-(6,6'-bis(chloromethyl)-2,2'-bipyridine)-nickel(ii)
_symmetry_cell_setting           monoclinic
_symmetry_space_group_name_H-M   'P 21/n'
_symmetry_Int_Tables_number      14
_space_group_name_Hall           '-P 2yn'
loop_
_symmetry_equiv_pos_site_id
_symmetry_equiv_pos_as_xyz
1 x,y,z
2 1/2-x,1/2+y,1/2-z
3 -x,-y,-z
4 1/2+x,1/2-y,1/2+z
_cell_length_a                   9.8515(6)
_cell_length_b                   7.6429(5)
_cell_length_c                   20.6049(13)
_cell_angle_alpha                90
_cell_angle_beta                 93.8060(10)
_cell_angle_gamma                90
_cell_volume                     1548
_exptl_crystal_colour            green
_exptl_crystal_description       needle
_cell_formula_units_Z            4
loop_
_atom_site_label
_atom_site_type_symbol
_atom_site_fract_x
_atom_site_fract_y
_atom_site_fract_z
Br1 Br 0.70416(6) 0.07814(8) 0.12761(2)
Cl2 Cl 0.952(2) -0.432(3) 0.1912(11)
Cl3 Cl 0.5482(9) -0.2521(9) -0.0097(3)
Cl4 Cl 1.0732(5) 0.0026(7) 0.3351(2)
Ni1 Ni 0.86148(4) -0.15734(5) 0.162245(16)
N1 N 0.9018(3) -0.2203(3) 0.06990(11)
N2 N 1.0459(3) -0.0388(3) 0.16039(13)
O1 O 0.7850(2) -0.1493(3) 0.24965(11)
H1 H 0.721(3) -0.084(5) 0.259(2)
H2 H 0.803(4) -0.229(4) 0.2771(15)
C1 C 0.6806(4) -0.3516(5) 0.04589(18)
H3 H 0.6726 -0.3145 0.0915
H4 H 0.6714 -0.4805 0.0442
C2 C 0.8191(4) -0.3022(4) 0.02563(15)
C3 C 0.8648(5) -0.3441(5) -0.03584(16)
H5 H 0.8061 -0.4013 -0.0676
C4 C 0.9964(5) -0.3007(5) -0.04932(16)
H6 H 1.0281 -0.3273 -0.0907
C5 C 1.0806(4) -0.2203(5) -0.00371(16)
H7 H 1.1713 -0.1918 -0.0127
C6 C 1.0314(3) -0.1803(4) 0.05665(15)
C7 C 1.1135(3) -0.0904(4) 0.10858(16)
C8 C 1.2518(4) -0.0526(5) 0.1054(2)
H8 H 1.2998 -0.0926 0.0698
C9 C 1.3179(4) 0.0439(5) 0.1548(2)
H9 H 1.4122 0.0687 0.1539
C10 C 1.2463(4) 0.1033(5) 0.2050(2)
H10 H 1.2898 0.1734 0.2383
C11 C 1.1095(3) 0.0605(4) 0.20694(17)
C12 C 1.0299(4) 0.1266(5) 0.26127(17)
H11 H 0.9317 0.1193 0.2478
H12 H 1.0524 0.2514 0.2691
Br2? Br 0.9591(10) -0.4445(15) 0.1968(5)
Cl1? Cl 0.6997(15) 0.084(2) 0.1283(7)
Br3? Br 0.5344(13) -0.2487(12) -0.0077(4)
Br4? Br 1.0630(4) 0.0032(5) 0.3388(2)
loop_
_geom_bond_atom_site_label_1
_geom_bond_atom_site_label_2
_geom_bond_site_symmetry_1
_geom_bond_site_symmetry_2
Br1 Ni1 1_555 1_555
Cl2 Ni1 1_555 1_555
Cl3 C1 1_555 1_555
Cl4 C12 1_555 1_555
Ni1 N1 1_555 1_555
N1 C2 1_555 1_555
N2 Ni1 1_555 1_555
O1 Ni1 1_555 1_555
H1 O1 1_555 1_555
H2 O1 1_555 1_555
C1 H3 1_555 1_555
H4 C1 1_555 1_555
C2 C1 1_555 1_555
C3 C2 1_555 1_555
H5 C3 1_555 1_555
C4 C3 1_555 1_555
H6 C4 1_555 1_555
C5 C4 1_555 1_555
H7 C5 1_555 1_555
C6 N1 1_555 1_555
C7 N2 1_555 1_555
C8 C7 1_555 1_555
H8 C8 1_555 1_555
C9 C8 1_555 1_555
H9 C9 1_555 1_555
C10 C9 1_555 1_555
H10 C10 1_555 1_555
C11 N2 1_555 1_555
C12 C11 1_555 1_555
H11 C12 1_555 1_555
H12 C12 1_555 1_555
C5 C6 1_555 1_555
C6 C7 1_555 1_555
C10 C11 1_555 1_555

#END
