
#######################################################################
#
#                 Cambridge Crystallographic Data Centre
#                                CCDC 
#
#######################################################################
#
# If this CIF has been generated from an entry in the Cambridge 
# Structural Database, then it will include bibliographic, chemical, 
# crystal, experimental, refinement or atomic coordinate data resulting 
# from the CCDC's data processing and validation procedures.
#
#######################################################################

data_CIYNAA
_chemical_formula_moiety         
'C49 H43 Cu2 F2 N2 O2 P4 1+,F6 P1 1-,1.25(C4 H8 O1),H2 O1'
_chemical_name_systematic        
"(\m~2~-2-Phenyl-1,3-bis(2-pyridyl)-4,5,6,7-tetrahydro-2H-isophosphindole-N,N',P,P)-(\m~2~-bis(diphenylphosphino)methane-P,P')-(\m~2~-difluorophosphato-O,O')-di-copper(i) hexafluorophosphate tetrahydrofuran solvate monohydrate"
_symmetry_cell_setting           monoclinic
_symmetry_space_group_name_H-M   'P 2/n'
_symmetry_Int_Tables_number      13
_space_group_name_Hall           '-P 2yac'
loop_
_symmetry_equiv_pos_site_id
_symmetry_equiv_pos_as_xyz
1 x,y,z
2 1/2-x,y,1/2-z
3 -x,-y,-z
4 1/2+x,-y,1/2+z
_cell_length_a                   17.373(2)
_cell_length_b                   17.399(2)
_cell_length_c                   35.192(4)
_cell_angle_alpha                90
_cell_angle_beta                 93.312(5)
_cell_angle_gamma                90
_cell_volume                     10619.8
_exptl_crystal_colour            orange
_exptl_crystal_description       prism
_cell_formula_units_Z            8
_exptl_crystal_recrystallization_method pentane/tetrahydrofuran
loop_
_atom_site_label
_atom_site_type_symbol
_atom_site_fract_x
_atom_site_fract_y
_atom_site_fract_z
Cu1 Cu 0.08779(3) 0.23876(3) 0.101071(15)
Cu2 Cu 0.07769(3) 0.38074(3) 0.126251(16)
P1 P 0.07210(7) 0.34596(7) 0.06000(3)
P2 P 0.00220(7) 0.19453(7) 0.14046(3)
P3 P -0.02296(7) 0.36021(8) 0.16164(4)
P4 P 0.23316(8) 0.30078(8) 0.14545(4)
F1 F 0.31656(17) 0.31985(19) 0.13557(10)
F2 F 0.2513(2) 0.26751(19) 0.18562(9)
N1 N 0.0763(2) 0.1760(2) 0.05181(10)
N2 N 0.0707(2) 0.4908(2) 0.10491(11)
O1 O 0.20363(18) 0.23882(19) 0.11981(10)
O2 O 0.19011(19) 0.37370(19) 0.14876(10)
C1 C 0.0103(3) 0.2876(3) 0.02849(13)
C2 C -0.0560(3) 0.3258(3) 0.01779(13)
C3 C -0.1258(3) 0.2922(3) -0.00329(16)
H1 H -0.1500 0.2558 0.0132
H2 H -0.1095 0.2642 -0.0253
C4 C -0.1856(3) 0.3531(3) -0.01669(18)
H3 H -0.1666 0.3815 -0.0380
H4 H -0.2333 0.3280 -0.0253
C5 C -0.2009(3) 0.4077(3) 0.01495(17)
H5 H -0.2156 0.3791 0.0370
H6 H -0.2431 0.4417 0.0070
C6 C -0.1291(3) 0.4549(3) 0.02525(16)
H7 H -0.1209 0.4910 0.0048
H8 H -0.1372 0.4844 0.0481
C7 C -0.0577(3) 0.4058(3) 0.03200(13)
C8 C 0.0071(3) 0.4276(3) 0.05266(13)
C9 C 0.0246(3) 0.4996(3) 0.07312(14)
C10 C -0.0026(3) 0.5718(3) 0.06144(15)
H9 H -0.0337 0.5771 0.0392
C11 C 0.0175(3) 0.6351(3) 0.08333(17)
H10 H -0.0010 0.6834 0.0762
C12 C 0.0646(4) 0.6270(3) 0.11561(18)
H11 H 0.0789 0.6694 0.1305
C13 C 0.0906(4) 0.5537(3) 0.12557(16)
H12 H 0.1229 0.5479 0.1474
C14 C 0.0324(3) 0.2072(3) 0.02243(13)
C15 C 0.0147(3) 0.1657(3) -0.01041(13)
H13 H -0.0134 0.1883 -0.0307
C16 C 0.0390(3) 0.0904(3) -0.01286(14)
H14 H 0.0266 0.0618 -0.0347
C17 C 0.0817(3) 0.0576(3) 0.01729(15)
H15 H 0.0986 0.0069 0.0162
C18 C 0.0987(3) 0.1022(3) 0.04896(14)
H16 H 0.1269 0.0803 0.0694
C19 C 0.1595(3) 0.3652(3) 0.03500(13)
C20 C 0.1679(3) 0.3423(3) -0.00241(14)
H17 H 0.1275 0.3176 -0.0159
C21 C 0.2365(3) 0.3560(3) -0.01973(16)
H18 H 0.2417 0.3409 -0.0448
C22 C 0.2966(3) 0.3921(3) 0.00029(18)
H19 H 0.3427 0.4008 -0.0112
C23 C 0.2887(3) 0.4155(3) 0.03753(16)
H20 H 0.3291 0.4404 0.0509
C24 C 0.2204(3) 0.4014(3) 0.05456(15)
H21 H 0.2154 0.4167 0.0796
C25 C -0.0701(3) 0.2682(3) 0.14983(14)
H22 H -0.1050 0.2745 0.1275
H23 H -0.1001 0.2519 0.1708
C26 C -0.0565(3) 0.1170(3) 0.11898(13)
C27 C -0.1051(3) 0.1330(3) 0.08722(16)
H24 H -0.1098 0.1831 0.0782
C28 C -0.1465(3) 0.0741(4) 0.06893(18)
H25 H -0.1792 0.0853 0.0478
C29 C -0.1399(4) 0.0002(4) 0.08144(19)
H26 H -0.1689 -0.0387 0.0694
C30 C -0.0905(4) -0.0160(4) 0.11171(18)
H27 H -0.0848 -0.0667 0.1198
C31 C -0.0480(4) 0.0419(3) 0.13090(16)
H28 H -0.0144 0.0298 0.1515
C32 C 0.0386(3) 0.1575(3) 0.18614(13)
C33 C 0.1138(3) 0.1320(4) 0.18932(17)
H29 H 0.1441 0.1347 0.1684
C34 C 0.1445(4) 0.1023(4) 0.2235(2)
H30 H 0.1950 0.0844 0.2254
C35 C 0.1000(5) 0.0996(4) 0.25475(18)
H31 H 0.1212 0.0813 0.2779
C36 C 0.0251(4) 0.1236(4) 0.25174(16)
H32 H -0.0047 0.1211 0.2728
C37 C -0.0070(4) 0.1517(3) 0.21748(15)
H33 H -0.0584 0.1667 0.2154
C38 C -0.0989(3) 0.4311(3) 0.15166(17)
C39 C -0.1642(3) 0.4180(3) 0.12956(17)
H34 H -0.1753 0.3684 0.1211
C40 C -0.2153(4) 0.4781(4) 0.1193(2)
H35 H -0.2598 0.4678 0.1041
C41 C -0.2010(5) 0.5490(4) 0.1309(3)
H36 H -0.2359 0.5882 0.1248
C42 C -0.1338(6) 0.5640(5) 0.1521(4)
H37 H -0.1223 0.6141 0.1596
C43 C -0.0835(5) 0.5056(5) 0.1622(3)
H38 H -0.0381 0.5169 0.1765
C44 C -0.0069(3) 0.3585(3) 0.21325(15)
C45 C 0.0661(5) 0.3489(5) 0.22841(19)
H39 H 0.1069 0.3471 0.2124
C46 C 0.0810(6) 0.3417(6) 0.2681(2)
H40 H 0.1309 0.3332 0.2782
C47 C 0.0221(7) 0.3474(7) 0.2910(2)
H41 H 0.0315 0.3458 0.3173
C48 C -0.0491(6) 0.3554(8) 0.2763(2)
H42 H -0.0894 0.3596 0.2924
C49 C -0.0646(5) 0.3576(7) 0.2374(2)
H43 H -0.1155 0.3584 0.2277
Cu3 Cu 0.60150(3) 0.88343(3) 0.120767(16)
Cu4 Cu 0.56968(4) 0.73453(3) 0.10881(2)
P5 P 0.55019(7) 0.83316(7) 0.06156(3)
P6 P 0.51210(8) 0.90063(8) 0.16292(4)
P7 P 0.49250(10) 0.72803(9) 0.15716(4)
P8 P 0.74021(9) 0.77358(9) 0.12734(6)
F3 F 0.8145(2) 0.7733(2) 0.10494(15)
F4 F 0.7760(3) 0.7440(2) 0.16550(15)
N3 N 0.6143(2) 0.9820(2) 0.08909(10)
N4 N 0.5164(2) 0.6686(2) 0.06695(13)
O3 O 0.7156(2) 0.8540(2) 0.13235(11)
O4 O 0.6874(2) 0.7141(2) 0.11082(12)
C50 C 0.4611(3) 0.7869(3) 0.04592(13)
C51 C 0.4039(3) 0.8407(3) 0.04045(13)
C52 C 0.3192(3) 0.8234(3) 0.03231(16)
H44 H 0.2994 0.7986 0.0544
H45 H 0.3138 0.7875 0.0112
C53 C 0.2709(3) 0.8940(3) 0.02264(16)
H46 H 0.2784 0.9088 -0.0035
H47 H 0.2168 0.8812 0.0244
C54 C 0.2905(3) 0.9606(3) 0.04827(17)
H48 H 0.2843 0.9459 0.0745
H49 H 0.2557 1.0029 0.0421
C55 C 0.3731(3) 0.9861(3) 0.04369(14)
H50 H 0.3761 1.0112 0.0192
H51 H 0.3875 1.0234 0.0633
C56 C 0.4295(3) 0.9205(3) 0.04622(12)
C57 C 0.5063(3) 0.9268(2) 0.05507(12)
C58 C 0.5533(3) 0.9955(3) 0.06430(13)
C59 C 0.5396(3) 1.0689(3) 0.04900(13)
H52 H 0.4980 1.0777 0.0317
C60 C 0.5890(3) 1.1278(3) 0.06008(14)
H53 H 0.5802 1.1771 0.0507
C61 C 0.6508(3) 1.1138(3) 0.08485(14)
H54 H 0.6845 1.1532 0.0923
C62 C 0.6626(3) 1.0398(3) 0.09866(14)
H55 H 0.7054 1.0299 0.1151
C63 C 0.4602(3) 0.7028(3) 0.04364(14)
C64 C 0.4129(3) 0.6595(3) 0.01932(15)
H56 H 0.3760 0.6833 0.0031
C65 C 0.4208(3) 0.5803(3) 0.01916(16)
H57 H 0.3889 0.5506 0.0029
C66 C 0.4758(3) 0.5454(3) 0.04298(16)
H58 H 0.4814 0.4923 0.0432
C67 C 0.5227(3) 0.5912(3) 0.06663(16)
H59 H 0.5598 0.5679 0.0829
C68 C 0.6147(3) 0.8218(2) 0.02299(13)
C69 C 0.5909(3) 0.7882(3) -0.01169(14)
H60 H 0.5409 0.7694 -0.0154
C70 C 0.6416(3) 0.7827(3) -0.04066(14)
H61 H 0.6252 0.7607 -0.0638
C71 C 0.7163(3) 0.8097(3) -0.03529(15)
H62 H 0.7498 0.8066 -0.0549
C72 C 0.7410(3) 0.8416(3) -0.00054(15)
H63 H 0.7915 0.8591 0.0032
C73 C 0.6911(3) 0.8476(3) 0.02878(14)
H64 H 0.7082 0.8685 0.0521
C74 C 0.4440(3) 0.8200(3) 0.16091(15)
H65 H 0.4151 0.8203 0.1837
H66 H 0.4078 0.8266 0.1391
C75 C 0.4146(4) 0.6601(4) 0.14796(16)
C76 C 0.3414(4) 0.6815(4) 0.13359(19)
H67 H 0.3298 0.7334 0.1304
C77 C 0.2852(5) 0.6270(5) 0.1239(2)
H68 H 0.2370 0.6420 0.1136
C78 C 0.3020(5) 0.5504(5) 0.1297(3)
H69 H 0.2641 0.5135 0.1244
C79 C 0.3732(5) 0.5285(4) 0.1429(3)
H70 H 0.3843 0.4765 0.1461
C80 C 0.4297(4) 0.5827(4) 0.1518(2)
H71 H 0.4786 0.5667 0.1605
C81 C 0.5093(7) 0.7190(6) 0.2099(3)
C82 C 0.4507(8) 0.7032(7) 0.2348(3)
H72 H 0.4003 0.6942 0.2254
C83 C 0.4702(11) 0.7014(9) 0.2743(4)
H73 H 0.4325 0.6914 0.2913
C84 C 0.5460(12) 0.7146(10) 0.2878(4)
H74 H 0.5586 0.7140 0.3138
C85 C 0.6014(9) 0.7283(9) 0.2633(4)
H75 H 0.6518 0.7362 0.2729
C86 C 0.5856(8) 0.7308(7) 0.2243(3)
H76 H 0.6246 0.7401 0.2079
C93 C 0.4500(3) 0.9840(3) 0.15427(13)
C94 C 0.3694(3) 0.9801(4) 0.15154(15)
H82 H 0.3450 0.9336 0.1558
C95 C 0.3254(4) 1.0450(4) 0.14250(17)
H83 H 0.2720 1.0414 0.1403
C96 C 0.3603(4) 1.1137(4) 0.13693(17)
H84 H 0.3306 1.1570 0.1311
C97 C 0.4394(4) 1.1196(3) 0.13993(15)
H85 H 0.4630 1.1668 0.1363
C98 C 0.4838(3) 1.0547(3) 0.14844(14)
H86 H 0.5372 1.0589 0.1503
C99 C 0.5465(4) 0.9083(4) 0.21303(14)
C100 C 0.6225(4) 0.9043(8) 0.2220(2)
H87 H 0.6570 0.8985 0.2030
C101 C 0.6496(5) 0.9088(11) 0.2598(2)
H88 H 0.7024 0.9065 0.2659
C102 C 0.6011(6) 0.9162(7) 0.2874(2)
H89 H 0.6204 0.9214 0.3125
C103 C 0.5253(5) 0.9164(4) 0.27954(17)
H90 H 0.4918 0.9176 0.2992
C104 C 0.4964(4) 0.9146(3) 0.24192(16)
H91 H 0.4436 0.9177 0.2362
O6 O 0.6362(19) 0.518(3) 0.2038(9)
O7 O 0.7500 0.4447(8) 0.2500
C105 C 0.6922 0.0968 0.2011
H92 H 0.6649 0.0602 0.1845
H93 H 0.6944 0.0798 0.2274
C106 C 0.7774 0.1251 0.1857
H94 H 0.8169 0.0875 0.1927
H95 H 0.7740 0.1303 0.1582
C107 C 0.7960 0.1962 0.2028
H96 H 0.8416 0.2175 0.1921
H97 H 0.8063 0.1898 0.2300
C108 C 0.7320 0.2456 0.1954
H98 H 0.7328 0.2712 0.1710
H99 H 0.7261 0.2829 0.2156
O9 O 0.6671 0.1744 0.1958
P9 P 0.58011(11) 0.35078(10) 0.09722(5)
F5 F 0.5519(3) 0.2754(2) 0.11781(13)
F6 F 0.5223(3) 0.3336(3) 0.06217(12)
F7 F 0.5174(3) 0.4004(3) 0.11604(15)
F8 F 0.6100(2) 0.42521(18) 0.07607(10)
F9 F 0.6383(3) 0.3665(3) 0.13216(13)
F10 F 0.6448(3) 0.3023(2) 0.07786(14)
P10 P 0.12429(9) 0.85583(9) 0.11518(4)
F11 F 0.1533(3) 0.7923(2) 0.08660(11)
F12 F 0.1290(2) 0.7937(2) 0.14862(9)
F13 F 0.0386(2) 0.8287(3) 0.10386(11)
F14 F 0.0945(2) 0.9178(2) 0.14342(11)
F15 F 0.1193(2) 0.9163(2) 0.08094(10)
F16 F 0.2111(2) 0.8789(2) 0.12551(10)
O5? O 0.6485(5) 0.5751(4) 0.1771(4)
C87? C 0.5495 0.6942 0.1993
C88? C 0.5172 0.7022 0.2335
H77? H 0.4681 0.7230 0.2350
C89? C 0.5613 0.6778 0.2673
H78? H 0.5420 0.6843 0.2912
C90? C 0.6337 0.6440 0.2636
H79? H 0.6609 0.6261 0.2853
C91? C 0.6655 0.6363 0.2300
H80? H 0.7144 0.6152 0.2284
C92? C 0.6227 0.6611 0.1973
H81? H 0.6434 0.6555 0.1736
O8? O 0.7166(9) 0.4719(9) 0.2219(5)
C109? C 0.2519 0.8320 0.2204
O10? O 0.3234 0.8153 0.2305
C110? C 0.1989 0.8503 0.2300
C111? C 0.3300 0.5865 0.2835
C112? C 0.2427 0.5980 0.2684
O11? O 0.2681 0.5053 0.2603
C113? C 0.3624 0.5290 0.2603
loop_
_geom_bond_atom_site_label_1
_geom_bond_atom_site_label_2
_geom_bond_site_symmetry_1
_geom_bond_site_symmetry_2
Cu1 Cu2 1_555 1_555
Cu2 P1 1_555 1_555
Cu3 Cu4 1_555 1_555
Cu4 P5 1_555 1_555
P1 Cu1 1_555 1_555
P2 Cu1 1_555 1_555
P3 Cu2 1_555 1_555
P4 F1 1_555 1_555
P5 Cu3 1_555 1_555
P6 Cu3 1_555 1_555
P7 Cu4 1_555 1_555
P8 F3 1_555 1_555
F2 P4 1_555 1_555
F4 P8 1_555 1_555
N1 Cu1 1_555 1_555
N2 Cu2 1_555 1_555
N3 Cu3 1_555 1_555
N4 Cu4 1_555 1_555
O1 Cu1 1_555 1_555
O2 Cu2 1_555 1_555
O3 Cu3 1_555 1_555
O4 Cu4 1_555 1_555
C1 P1 1_555 1_555
C2 C1 1_555 1_555
C3 C2 1_555 1_555
H1 C3 1_555 1_555
H2 C3 1_555 1_555
C4 C3 1_555 1_555
H3 C4 1_555 1_555
H4 C4 1_555 1_555
C5 C4 1_555 1_555
H5 C5 1_555 1_555
H6 C5 1_555 1_555
C6 C5 1_555 1_555
H7 C6 1_555 1_555
H8 C6 1_555 1_555
C7 C2 1_555 1_555
C8 P1 1_555 1_555
C9 N2 1_555 1_555
C10 C9 1_555 1_555
H9 C10 1_555 1_555
C11 C10 1_555 1_555
H10 C11 1_555 1_555
C12 C11 1_555 1_555
H11 C12 1_555 1_555
C13 N2 1_555 1_555
H12 C13 1_555 1_555
C14 N1 1_555 1_555
C15 C14 1_555 1_555
H13 C15 1_555 1_555
C16 C15 1_555 1_555
H14 C16 1_555 1_555
C17 C16 1_555 1_555
H15 C17 1_555 1_555
C18 N1 1_555 1_555
H16 C18 1_555 1_555
C19 P1 1_555 1_555
C20 C19 1_555 1_555
H17 C20 1_555 1_555
C21 C20 1_555 1_555
H18 C21 1_555 1_555
C22 C21 1_555 1_555
H19 C22 1_555 1_555
C23 C22 1_555 1_555
H20 C23 1_555 1_555
C24 C19 1_555 1_555
H21 C24 1_555 1_555
C25 P2 1_555 1_555
H22 C25 1_555 1_555
H23 C25 1_555 1_555
C26 P2 1_555 1_555
C27 C26 1_555 1_555
H24 C27 1_555 1_555
C28 C27 1_555 1_555
H25 C28 1_555 1_555
C29 C28 1_555 1_555
H26 C29 1_555 1_555
C30 C29 1_555 1_555
H27 C30 1_555 1_555
C31 C26 1_555 1_555
H28 C31 1_555 1_555
C32 P2 1_555 1_555
C33 C32 1_555 1_555
H29 C33 1_555 1_555
C34 C33 1_555 1_555
H30 C34 1_555 1_555
C35 C34 1_555 1_555
H31 C35 1_555 1_555
C36 C35 1_555 1_555
H32 C36 1_555 1_555
C37 C32 1_555 1_555
H33 C37 1_555 1_555
C38 P3 1_555 1_555
C39 C38 1_555 1_555
H34 C39 1_555 1_555
C40 C39 1_555 1_555
H35 C40 1_555 1_555
C41 C40 1_555 1_555
H36 C41 1_555 1_555
C42 C41 1_555 1_555
H37 C42 1_555 1_555
C43 C38 1_555 1_555
H38 C43 1_555 1_555
C44 P3 1_555 1_555
C45 C44 1_555 1_555
H39 C45 1_555 1_555
C46 C45 1_555 1_555
H40 C46 1_555 1_555
C47 C46 1_555 1_555
H41 C47 1_555 1_555
C48 C47 1_555 1_555
H42 C48 1_555 1_555
C49 C44 1_555 1_555
H43 C49 1_555 1_555
C50 P5 1_555 1_555
C51 C50 1_555 1_555
C52 C51 1_555 1_555
H44 C52 1_555 1_555
H45 C52 1_555 1_555
C53 C52 1_555 1_555
H46 C53 1_555 1_555
H47 C53 1_555 1_555
C54 C53 1_555 1_555
H48 C54 1_555 1_555
H49 C54 1_555 1_555
C55 C54 1_555 1_555
H50 C55 1_555 1_555
H51 C55 1_555 1_555
C56 C51 1_555 1_555
C57 P5 1_555 1_555
C58 N3 1_555 1_555
C59 C58 1_555 1_555
H52 C59 1_555 1_555
C60 C59 1_555 1_555
H53 C60 1_555 1_555
C61 C60 1_555 1_555
H54 C61 1_555 1_555
C62 N3 1_555 1_555
H55 C62 1_555 1_555
C63 N4 1_555 1_555
C64 C63 1_555 1_555
H56 C64 1_555 1_555
C65 C64 1_555 1_555
H57 C65 1_555 1_555
C66 C65 1_555 1_555
H58 C66 1_555 1_555
C67 N4 1_555 1_555
H59 C67 1_555 1_555
C68 P5 1_555 1_555
C69 C68 1_555 1_555
H60 C69 1_555 1_555
C70 C69 1_555 1_555
H61 C70 1_555 1_555
C71 C70 1_555 1_555
H62 C71 1_555 1_555
C72 C71 1_555 1_555
H63 C72 1_555 1_555
C73 C68 1_555 1_555
H64 C73 1_555 1_555
C74 P6 1_555 1_555
H65 C74 1_555 1_555
H66 C74 1_555 1_555
C75 P7 1_555 1_555
C76 C75 1_555 1_555
H67 C76 1_555 1_555
C77 C76 1_555 1_555
H68 C77 1_555 1_555
C78 C77 1_555 1_555
H69 C78 1_555 1_555
C79 C78 1_555 1_555
H70 C79 1_555 1_555
C80 C75 1_555 1_555
H71 C80 1_555 1_555
C81 P7 1_555 1_555
C82 C81 1_555 1_555
H72 C82 1_555 1_555
C83 C82 1_555 1_555
H73 C83 1_555 1_555
C84 C83 1_555 1_555
H74 C84 1_555 1_555
C85 C84 1_555 1_555
H75 C85 1_555 1_555
C86 C81 1_555 1_555
H76 C86 1_555 1_555
C93 P6 1_555 1_555
C94 C93 1_555 1_555
H82 C94 1_555 1_555
C95 C94 1_555 1_555
H83 C95 1_555 1_555
C96 C95 1_555 1_555
H84 C96 1_555 1_555
C97 C96 1_555 1_555
H85 C97 1_555 1_555
C98 C93 1_555 1_555
H86 C98 1_555 1_555
C99 P6 1_555 1_555
C100 C99 1_555 1_555
H87 C100 1_555 1_555
C101 C100 1_555 1_555
H88 C101 1_555 1_555
C102 C101 1_555 1_555
H89 C102 1_555 1_555
C103 C102 1_555 1_555
H90 C103 1_555 1_555
C104 C99 1_555 1_555
H91 C104 1_555 1_555
C105 H92 1_555 1_555
H93 C105 1_555 1_555
C106 C105 1_555 1_555
H94 C106 1_555 1_555
H95 C106 1_555 1_555
C107 C106 1_555 1_555
H96 C107 1_555 1_555
H97 C107 1_555 1_555
C108 C107 1_555 1_555
H98 C108 1_555 1_555
H99 C108 1_555 1_555
P9 F5 1_555 1_555
P10 F11 1_555 1_555
F6 P9 1_555 1_555
F7 P9 1_555 1_555
F8 P9 1_555 1_555
F9 P9 1_555 1_555
F10 P9 1_555 1_555
F12 P10 1_555 1_555
F13 P10 1_555 1_555
F14 P10 1_555 1_555
F15 P10 1_555 1_555
F16 P10 1_555 1_555
O9 C105 1_555 1_555
P3 C25 1_555 1_555
P4 O1 1_555 1_555
P4 O2 1_555 1_555
P7 C74 1_555 1_555
P8 O3 1_555 1_555
P8 O4 1_555 1_555
C1 C14 1_555 1_555
C6 C7 1_555 1_555
C7 C8 1_555 1_555
C8 C9 1_555 1_555
C12 C13 1_555 1_555
C17 C18 1_555 1_555
C23 C24 1_555 1_555
C30 C31 1_555 1_555
C36 C37 1_555 1_555
C42 C43 1_555 1_555
C48 C49 1_555 1_555
C50 C63 1_555 1_555
C55 C56 1_555 1_555
C56 C57 1_555 1_555
C57 C58 1_555 1_555
C61 C62 1_555 1_555
C66 C67 1_555 1_555
C72 C73 1_555 1_555
C79 C80 1_555 1_555
C85 C86 1_555 1_555
C97 C98 1_555 1_555
C103 C104 1_555 1_555
C108 O9 1_555 1_555

#END
