
#######################################################################
#
#                 Cambridge Crystallographic Data Centre
#                                CCDC 
#
#######################################################################
#
# If this CIF has been generated from an entry in the Cambridge 
# Structural Database, then it will include bibliographic, chemical, 
# crystal, experimental, refinement or atomic coordinate data resulting 
# from the CCDC's data processing and validation procedures.
#
#######################################################################

data_COZMUB
_chemical_formula_moiety         'C39 H39 Cu3 N6 O6'
_chemical_name_systematic        
tris(\m~2~-4-(4-(methoxycarbonyl)phenyl)-3,5-dimethyl-1H-pyrazol-1-yl)-tri-copper
_symmetry_cell_setting           monoclinic
_symmetry_space_group_name_H-M   'P 21/c'
_symmetry_Int_Tables_number      14
_space_group_name_Hall           '-P 2ybc'
loop_
_symmetry_equiv_pos_site_id
_symmetry_equiv_pos_as_xyz
1 x,y,z
2 -x,1/2+y,1/2-z
3 -x,-y,-z
4 x,1/2-y,1/2+z
_cell_length_a                   37.929(5)
_cell_length_b                   9.3308(9)
_cell_length_c                   23.607(2)
_cell_angle_alpha                90
_cell_angle_beta                 103.966(11)
_cell_angle_gamma                90
_cell_volume                     8107.73
_exptl_crystal_colour            colorless
_exptl_crystal_description       block
_cell_formula_units_Z            8
loop_
_atom_site_label
_atom_site_type_symbol
_atom_site_fract_x
_atom_site_fract_y
_atom_site_fract_z
Cu1 Cu 0.02179(5) 0.68638(18) 0.06269(7)
Cu2 Cu 0.03976(5) 0.54848(18) -0.05340(7)
Cu3 Cu 0.09069(5) 0.48709(18) 0.07342(7)
N1 N -0.0063(3) 0.7385(12) -0.0100(4)
N2 N 0.0009(3) 0.6745(11) -0.0601(5)
N3 N 0.0798(3) 0.4323(11) -0.0472(5)
N4 N 0.1009(3) 0.4023(11) 0.0094(5)
N5 N 0.0830(3) 0.5792(12) 0.1389(5)
N6 N 0.0517(3) 0.6535(11) 0.1359(4)
C1 C -0.2268(7) 1.062(3) -0.3082(12)
H1 H -0.2239 1.0816 -0.3468
H2 H -0.2328 1.1492 -0.2910
H3 H -0.2460 0.9936 -0.3105
C2 C -0.1790(5) 1.0763(19) -0.2241(8)
C3 C -0.1448(4) 1.0174(13) -0.1899(6)
C4 C -0.1241(5) 1.0815(15) -0.1408(7)
H4 H -0.1323 1.1677 -0.1289
C5 C -0.0919(4) 1.0263(14) -0.1080(6)
H5 H -0.0787 1.0752 -0.0755
C6 C -0.0793(4) 0.8941(14) -0.1249(6)
C7 C -0.0991(4) 0.8266(14) -0.1746(6)
H6 H -0.0911 0.7398 -0.1862
C8 C -0.1307(4) 0.8869(16) -0.2071(6)
H7 H -0.1431 0.8415 -0.2412
C9 C -0.0476(4) 0.9053(15) 0.0188(6)
H8 H -0.0432 0.8493 0.0539
H9 H -0.0732 0.9229 0.0053
H10 H -0.0350 0.9949 0.0265
C10 C -0.0344(3) 0.8251(13) -0.0271(6)
C11 C -0.0464(4) 0.8245(14) -0.0884(6)
C12 C -0.0230(4) 0.7273(13) -0.1067(6)
C13 C -0.0202(4) 0.6795(16) -0.1673(6)
H11 H 0.0045 0.6544 -0.1662
H12 H -0.0278 0.7563 -0.1945
H13 H -0.0356 0.5978 -0.1792
C14 C 0.2620(7) -0.025(3) -0.2298(12)
H14 H 0.2611 0.0230 -0.2661
H15 H 0.2552 -0.1236 -0.2373
H16 H 0.2863 -0.0199 -0.2055
C15 C 0.2316(5) -0.0096(19) -0.1518(8)
C16 C 0.2048(4) 0.0749(16) -0.1281(7)
C17 C 0.1909(4) 0.2048(15) -0.1513(6)
H17 H 0.1981 0.2432 -0.1832
C18 C 0.1663(4) 0.2776(15) -0.1272(6)
H18 H 0.1579 0.3669 -0.1420
C19 C 0.1541(4) 0.2198(15) -0.0815(6)
C20 C 0.1669(4) 0.0902(16) -0.0584(6)
H19 H 0.1583 0.0493 -0.0285
C21 C 0.1934(5) 0.0199(16) -0.0806(8)
H20 H 0.2035 -0.0650 -0.0634
C22 C 0.0797(4) 0.3844(16) -0.1501(6)
H21 H 0.0550 0.4167 -0.1565
H22 H 0.0802 0.2925 -0.1683
H23 H 0.0934 0.4519 -0.1668
C23 C 0.0960(4) 0.3718(15) -0.0862(6)
C24 C 0.1275(4) 0.2998(13) -0.0562(6)
C25 C 0.1293(4) 0.3207(14) 0.0018(6)
C26 C 0.1559(4) 0.2692(17) 0.0558(6)
H24 H 0.1578 0.3389 0.0863
H25 H 0.1792 0.2560 0.0476
H26 H 0.1476 0.1798 0.0681
C27 C 0.1802(6) 0.818(2) 0.5574(6)
H27 H 0.2024 0.8717 0.5641
H28 H 0.1851 0.7243 0.5742
H29 H 0.1633 0.8667 0.5751
C28 C 0.1287(6) 0.7575(17) 0.4774(8)
C29 C 0.1183(5) 0.7429(14) 0.4120(6)
C30 C 0.1406(4) 0.7757(15) 0.3747(7)
H30 H 0.1636 0.8137 0.3896
C31 C 0.1281(5) 0.7513(16) 0.3142(6)
H31 H 0.1428 0.7764 0.2894
C32 C 0.0965(4) 0.6944(14) 0.2926(5)
C33 C 0.0733(4) 0.6620(15) 0.3293(6)
H32 H 0.0504 0.6241 0.3137
C34 C 0.0849(5) 0.6871(15) 0.3897(6)
H33 H 0.0698 0.6654 0.4141
C35 C 0.0224(4) 0.8056(16) 0.1965(7)
H34 H 0.0126 0.8546 0.1604
H35 H 0.0319 0.8743 0.2265
H36 H 0.0035 0.7508 0.2071
C36 C 0.0527(4) 0.7053(14) 0.1892(6)
C37 C 0.0850(4) 0.6624(14) 0.2286(6)
C38 C 0.1029(4) 0.5835(15) 0.1949(7)
C39 C 0.1392(4) 0.5149(15) 0.2113(6)
H37 H 0.1408 0.4423 0.1833
H38 H 0.1427 0.4722 0.2493
H39 H 0.1576 0.5859 0.2121
O1 O -0.1932(4) 1.0046(15) -0.2726(6)
O2 O -0.1927(3) 1.1807(13) -0.2063(5)
O3 O 0.2365(3) 0.0451(13) -0.1998(6)
O4 O 0.2474(3) -0.1110(14) -0.1272(6)
O5 O 0.1646(4) 0.8048(13) 0.4941(4)
O6 O 0.1111(4) 0.7338(13) 0.5095(4)
Cu4 Cu 0.47959(5) 0.18888(18) 1.04328(7)
Cu5 Cu 0.41076(5) -0.00944(18) 1.00149(7)
Cu6 Cu 0.46235(5) 0.05001(18) 0.91419(7)
N7 N 0.4489(3) 0.1590(11) 1.0930(4)
N8 N 0.4179(3) 0.0837(11) 1.0730(5)
N9 N 0.4016(3) -0.0966(11) 0.9292(5)
N10 N 0.4225(3) -0.0678(11) 0.8899(5)
N11 N 0.5010(3) 0.1798(11) 0.9371(5)
N12 N 0.5076(3) 0.2417(12) 0.9920(4)
C40 C 0.3206(5) 0.319(2) 1.4142(8)
H40 H 0.3024 0.3920 1.4102
H41 H 0.3398 0.3375 1.4481
H42 H 0.3099 0.2271 1.4181
C41 C 0.3694(6) 0.2696(18) 1.3717(7)
C42 C 0.3814(5) 0.2512(14) 1.3159(7)
C43 C 0.3599(4) 0.2895(16) 1.2619(6)
H43 H 0.3371 0.3301 1.2592
C44 C 0.3720(5) 0.2679(15) 1.2131(6)
H44 H 0.3577 0.2989 1.1775
C45 C 0.4045(5) 0.2019(14) 1.2142(6)
C46 C 0.4269(4) 0.1671(15) 1.2692(6)
H45 H 0.4496 0.1261 1.2717
C47 C 0.4154(5) 0.1936(16) 1.3201(6)
H46 H 0.4305 0.1726 1.3565
C48 C 0.3613(4) 0.0236(15) 1.1028(7)
H47 H 0.3432 0.0894 1.0823
H48 H 0.3564 -0.0004 1.1397
H49 H 0.3608 -0.0618 1.0800
C49 C 0.3985(4) 0.0924(15) 1.1130(6)
C50 C 0.4173(4) 0.1702(15) 1.1606(6)
C51 C 0.4493(4) 0.2158(15) 1.1457(5)
C52 C 0.4782(4) 0.3142(15) 1.1768(6)
H50 H 0.4947 0.2629 1.2074
H51 H 0.4675 0.3918 1.1934
H52 H 0.4912 0.3515 1.1499
C53 C 0.2248(7) -0.719(3) 0.6698(11)
H53 H 0.2064 -0.6589 0.6464
H54 H 0.2152 -0.7668 0.6988
H55 H 0.2325 -0.7886 0.6454
C54 C 0.2696(6) -0.519(2) 0.6713(10)
C55 C 0.2983(5) -0.437(2) 0.7193(9)
C56 C 0.3119(5) -0.4918(17) 0.7736(9)
H56 H 0.3043 -0.5807 0.7839
C57 C 0.3362(4) -0.4163(17) 0.8117(7)
H57 H 0.3455 -0.4542 0.8488
C58 C 0.3485(4) -0.2813(16) 0.7985(6)
C59 C 0.3348(4) -0.2268(16) 0.7426(7)
H58 H 0.3426 -0.1380 0.7326
C60 C 0.3097(5) -0.303(2) 0.7023(7)
H59 H 0.3005 -0.2678 0.6648
C61 C 0.3464(4) -0.2281(15) 0.9340(6)
H60 H 0.3232 -0.2423 0.9074
H61 H 0.3442 -0.1577 0.9626
H62 H 0.3547 -0.3169 0.9532
C62 C 0.3733(4) -0.1769(14) 0.9008(7)
C63 C 0.3749(4) -0.1962(14) 0.8427(6)
C64 C 0.4064(4) -0.1302(14) 0.8385(6)
C65 C 0.4231(4) -0.1133(16) 0.7877(6)
H63 H 0.4070 -0.0598 0.7575
H64 H 0.4273 -0.2062 0.7730
H65 H 0.4458 -0.0632 0.7999
C66 C 0.7348(7) 0.722(3) 0.9725(11)
H66 H 0.7452 0.6853 0.9423
H67 H 0.7481 0.6859 1.0096
H68 H 0.7359 0.8247 0.9727
C67 C 0.6838(6) 0.5685(19) 0.9252(7)
C68 C 0.6480(4) 0.5149(17) 0.9285(7)
C69 C 0.6255(5) 0.5865(15) 0.9604(6)
H69 H 0.6327 0.6732 0.9789
C70 C 0.5935(4) 0.5264(14) 0.9632(6)
H70 H 0.5795 0.5741 0.9847
C71 C 0.5799(4) 0.3991(14) 0.9364(5)
C72 C 0.6022(4) 0.3313(16) 0.9041(6)
H71 H 0.5950 0.2439 0.8860
C73 C 0.6336(5) 0.3913(17) 0.8991(7)
H72 H 0.6463 0.3476 0.8747
C74 C 0.5492(4) 0.4086(13) 1.0533(6)
H73 H 0.5369 0.4992 1.0507
H74 H 0.5749 0.4243 1.0597
H75 H 0.5444 0.3543 1.0851
C75 C 0.5357(4) 0.3274(13) 0.9975(6)
C76 C 0.5488(4) 0.3289(14) 0.9476(6)
C77 C 0.5252(4) 0.2335(14) 0.9105(6)
C78 C 0.5226(4) 0.1838(15) 0.8476(6)
H76 H 0.5368 0.0983 0.8482
H77 H 0.5318 0.2577 0.8267
H78 H 0.4977 0.1644 0.8287
O7 O 0.3353(4) 0.3181(15) 1.3626(7)
O8 O 0.3879(3) 0.2307(11) 1.4192(5)
O9 O 0.2567(4) -0.6283(16) 0.6993(7)
O10 O 0.2600(4) -0.4735(16) 0.6244(6)
O11 O 0.6946(4) 0.6732(16) 0.9613(6)
O12 O 0.7012(4) 0.5180(15) 0.8925(6)
loop_
_geom_bond_atom_site_label_1
_geom_bond_atom_site_label_2
_geom_bond_site_symmetry_1
_geom_bond_site_symmetry_2
Cu1 N1 1_555 1_555
Cu2 N2 1_555 1_555
Cu3 N4 1_555 1_555
N1 N2 1_555 1_555
N2 C12 1_555 1_555
N3 Cu2 1_555 1_555
N4 N3 1_555 1_555
N5 Cu3 1_555 1_555
N6 Cu1 1_555 1_555
C1 H1 1_555 1_555
H2 C1 1_555 1_555
H3 C1 1_555 1_555
C2 C3 1_555 1_555
C3 C4 1_555 1_555
C4 H4 1_555 1_555
C5 C4 1_555 1_555
H5 C5 1_555 1_555
C6 C5 1_555 1_555
C7 C6 1_555 1_555
H6 C7 1_555 1_555
C8 C3 1_555 1_555
H7 C8 1_555 1_555
C9 H8 1_555 1_555
H9 C9 1_555 1_555
H10 C9 1_555 1_555
C10 N1 1_555 1_555
C11 C6 1_555 1_555
C12 C11 1_555 1_555
C13 C12 1_555 1_555
H11 C13 1_555 1_555
H12 C13 1_555 1_555
H13 C13 1_555 1_555
C14 H14 1_555 1_555
H15 C14 1_555 1_555
H16 C14 1_555 1_555
C15 C16 1_555 1_555
C16 C17 1_555 1_555
C17 H17 1_555 1_555
C18 C17 1_555 1_555
H18 C18 1_555 1_555
C19 C18 1_555 1_555
C20 C19 1_555 1_555
H19 C20 1_555 1_555
C21 C16 1_555 1_555
H20 C21 1_555 1_555
C22 H21 1_555 1_555
H22 C22 1_555 1_555
H23 C22 1_555 1_555
C23 N3 1_555 1_555
C24 C19 1_555 1_555
C25 N4 1_555 1_555
C26 C25 1_555 1_555
H24 C26 1_555 1_555
H25 C26 1_555 1_555
H26 C26 1_555 1_555
C27 H27 1_555 1_555
H28 C27 1_555 1_555
H29 C27 1_555 1_555
C28 C29 1_555 1_555
C29 C30 1_555 1_555
C30 H30 1_555 1_555
C31 C30 1_555 1_555
H31 C31 1_555 1_555
C32 C31 1_555 1_555
C33 C32 1_555 1_555
H32 C33 1_555 1_555
C34 C29 1_555 1_555
H33 C34 1_555 1_555
C35 H34 1_555 1_555
H35 C35 1_555 1_555
H36 C35 1_555 1_555
C36 N6 1_555 1_555
C37 C32 1_555 1_555
C38 N5 1_555 1_555
C39 C38 1_555 1_555
H37 C39 1_555 1_555
H38 C39 1_555 1_555
H39 C39 1_555 1_555
O1 C1 1_555 1_555
O2 C2 1_555 1_555
O3 C14 1_555 1_555
O4 C15 1_555 1_555
O5 C27 1_555 1_555
O6 C28 1_555 1_555
Cu4 N7 1_555 1_555
Cu5 N8 1_555 1_555
Cu6 N10 1_555 1_555
N7 N8 1_555 1_555
N8 C49 1_555 1_555
N9 Cu5 1_555 1_555
N10 N9 1_555 1_555
N11 Cu6 1_555 1_555
N12 Cu4 1_555 1_555
C40 H40 1_555 1_555
H41 C40 1_555 1_555
H42 C40 1_555 1_555
C41 C42 1_555 1_555
C42 C43 1_555 1_555
C43 H43 1_555 1_555
C44 C43 1_555 1_555
H44 C44 1_555 1_555
C45 C44 1_555 1_555
C46 C45 1_555 1_555
H45 C46 1_555 1_555
C47 C42 1_555 1_555
H46 C47 1_555 1_555
C48 H47 1_555 1_555
H48 C48 1_555 1_555
H49 C48 1_555 1_555
C49 C48 1_555 1_555
C50 C45 1_555 1_555
C51 N7 1_555 1_555
C52 C51 1_555 1_555
H50 C52 1_555 1_555
H51 C52 1_555 1_555
H52 C52 1_555 1_555
C53 H53 1_555 1_555
H54 C53 1_555 1_555
H55 C53 1_555 1_555
C54 C55 1_555 1_555
C55 C56 1_555 1_555
C56 H56 1_555 1_555
C57 C56 1_555 1_555
H57 C57 1_555 1_555
C58 C57 1_555 1_555
C59 C58 1_555 1_555
H58 C59 1_555 1_555
C60 C55 1_555 1_555
H59 C60 1_555 1_555
C61 H60 1_555 1_555
H61 C61 1_555 1_555
H62 C61 1_555 1_555
C62 N9 1_555 1_555
C63 C58 1_555 1_555
C64 N10 1_555 1_555
C65 C64 1_555 1_555
H63 C65 1_555 1_555
H64 C65 1_555 1_555
H65 C65 1_555 1_555
C66 H66 1_555 1_555
H67 C66 1_555 1_555
H68 C66 1_555 1_555
C67 C68 1_555 1_555
C68 C69 1_555 1_555
C69 H69 1_555 1_555
C70 C69 1_555 1_555
H70 C70 1_555 1_555
C71 C70 1_555 1_555
C72 C71 1_555 1_555
H71 C72 1_555 1_555
C73 C68 1_555 1_555
H72 C73 1_555 1_555
C74 H73 1_555 1_555
H74 C74 1_555 1_555
H75 C74 1_555 1_555
C75 N12 1_555 1_555
C76 C71 1_555 1_555
C77 N11 1_555 1_555
C78 C77 1_555 1_555
H76 C78 1_555 1_555
H77 C78 1_555 1_555
H78 C78 1_555 1_555
O7 C40 1_555 1_555
O8 C41 1_555 1_555
O9 C53 1_555 1_555
O10 C54 1_555 1_555
O11 C66 1_555 1_555
O12 C67 1_555 1_555
N5 N6 1_555 1_555
C2 O1 1_555 1_555
C7 C8 1_555 1_555
C9 C10 1_555 1_555
C10 C11 1_555 1_555
C15 O3 1_555 1_555
C20 C21 1_555 1_555
C22 C23 1_555 1_555
C23 C24 1_555 1_555
C24 C25 1_555 1_555
C28 O5 1_555 1_555
C33 C34 1_555 1_555
C35 C36 1_555 1_555
C36 C37 1_555 1_555
C37 C38 1_555 1_555
N11 N12 1_555 1_555
C41 O7 1_555 1_555
C46 C47 1_555 1_555
C49 C50 1_555 1_555
C50 C51 1_555 1_555
C54 O9 1_555 1_555
C59 C60 1_555 1_555
C61 C62 1_555 1_555
C62 C63 1_555 1_555
C63 C64 1_555 1_555
C67 O11 1_555 1_555
C72 C73 1_555 1_555
C74 C75 1_555 1_555
C75 C76 1_555 1_555
C76 C77 1_555 1_555

#END
