
#######################################################################
#
#                 Cambridge Crystallographic Data Centre
#                                CCDC 
#
#######################################################################
#
# If this CIF has been generated from an entry in the Cambridge 
# Structural Database, then it will include bibliographic, chemical, 
# crystal, experimental, refinement or atomic coordinate data resulting 
# from the CCDC's data processing and validation procedures.
#
#######################################################################

data_COZMUB01
_chemical_formula_moiety         'C39 H39 Cu3 N6 O6'
_chemical_name_systematic        
tris(\m~2~-4-(4-(methoxycarbonyl)phenyl)-3,5-dimethyl-1H-pyrazol-1-yl)-tri-copper
_symmetry_cell_setting           orthorhombic
_symmetry_space_group_name_H-M   'P c a 21'
_symmetry_Int_Tables_number      29
_space_group_name_Hall           'P 2c -2ac'
loop_
_symmetry_equiv_pos_site_id
_symmetry_equiv_pos_as_xyz
1 x,y,z
2 -x,-y,1/2+z
3 1/2-x,y,1/2+z
4 1/2+x,-y,z
_cell_length_a                   23.6311(5)
_cell_length_b                   9.3745(2)
_cell_length_c                   37.0046(9)
_cell_angle_alpha                90
_cell_angle_beta                 90
_cell_angle_gamma                90
_cell_volume                     8197.62
_exptl_crystal_colour            colorless
_exptl_crystal_description       block
_cell_formula_units_Z            8
loop_
_atom_site_label
_atom_site_type_symbol
_atom_site_fract_x
_atom_site_fract_y
_atom_site_fract_z
Cu1 Cu 0.43757(4) 0.76404(13) 0.35120(3)
Cu2 Cu 0.33033(5) 0.70206(13) 0.30033(3)
Cu3 Cu 0.45201(4) 0.56421(13) 0.28269(3)
N1 N 0.3681(2) 0.8497(7) 0.36139(18)
N2 N 0.3220(2) 0.8170(7) 0.34059(17)
N3 N 0.3370(2) 0.5744(7) 0.26256(17)
N4 N 0.3894(2) 0.5134(7) 0.25524(16)
N5 N 0.5147(2) 0.5948(7) 0.31249(18)
N6 N 0.5063(2) 0.6718(7) 0.34374(17)
C1 C 0.0591(5) 1.2539(16) 0.5127(4)
H1 H 0.0481 1.3286 0.4964
H2 H 0.0680 1.2942 0.5358
H3 H 0.0285 1.1872 0.5152
C2 C 0.1574(6) 1.2507(13) 0.4907(3)
C3 C 0.1921(5) 1.1717(13) 0.4636(3)
C4 C 0.1750(4) 1.0349(13) 0.4509(2)
H4 H 0.1417 0.9932 0.4593
C5 C 0.2076(3) 0.9671(10) 0.4267(2)
H5 H 0.1968 0.8769 0.4188
C6 C 0.2571(3) 1.0275(7) 0.41293(19)
C7 C 0.2732(5) 1.1628(9) 0.4254(3)
H6 H 0.3063 1.2049 0.4170
C8 C 0.2395(8) 1.2329(11) 0.4500(3)
H7 H 0.2496 1.3242 0.4576
C9 C 0.2192(3) 0.8602(11) 0.3396(2)
H8 H 0.2211 0.8862 0.3146
H9 H 0.1929 0.9216 0.3518
H10 H 0.2068 0.7630 0.3417
C10 C 0.2760(3) 0.8753(8) 0.3562(2)
C11 C 0.2936(3) 0.9498(8) 0.3879(2)
C12 C 0.3517(3) 0.9304(8) 0.3895(2)
C13 C 0.3937(4) 0.9803(11) 0.4164(3)
H11 H 0.4263 0.9193 0.4157
H12 H 0.3772 0.9777 0.4401
H13 H 0.4048 1.0763 0.4107
C14 C 0.8834(5) 0.4224(16) 0.4389(4)
H14 H 0.9113 0.4276 0.4201
H15 H 0.8873 0.3336 0.4516
H16 H 0.8888 0.5000 0.4555
C15 C 0.8226(3) 0.4819(9) 0.3907(3)
C16 C 0.7635(3) 0.5024(7) 0.3782(2)
C17 C 0.7188(3) 0.4633(10) 0.3999(3)
H17 H 0.7248 0.4209 0.4224
C18 C 0.6637(3) 0.4893(9) 0.3872(3)
H18 H 0.6333 0.4624 0.4016
C19 C 0.6529(3) 0.5502(8) 0.3557(2)
C20 C 0.6980(3) 0.5851(9) 0.3340(2)
H19 H 0.6911 0.6254 0.3114
C21 C 0.7533(3) 0.5622(8) 0.3446(2)
H20 H 0.7832 0.5864 0.3294
C22 C 0.5581(4) 0.7300(11) 0.3992(2)
H21 H 0.5342 0.8128 0.3999
H22 H 0.5966 0.7579 0.4036
H23 H 0.5462 0.6639 0.4175
C23 C 0.5538(3) 0.6611(8) 0.3632(2)
C24 C 0.5937(3) 0.5837(8) 0.3444(2)
C25 C 0.5663(3) 0.5410(9) 0.3119(2)
C26 C 0.5866(4) 0.4430(12) 0.2836(3)
H24 H 0.5563 0.3817 0.2762
H25 H 0.6172 0.3864 0.2930
H26 H 0.5998 0.4973 0.2633
C27 C 0.1881(6) 0.1829(17) 0.0336(4)
H27 H 0.1980 0.2514 0.0154
H28 H 0.1478 0.1704 0.0339
H29 H 0.2060 0.0934 0.0283
C28 C 0.2492(5) 0.1678(17) 0.0844(4)
C29 C 0.2658(3) 0.2311(8) 0.1191(2)
C30 C 0.2440(3) 0.3604(8) 0.1312(2)
H30 H 0.2165 0.4073 0.1178
C31 C 0.2630(3) 0.4189(8) 0.1630(2)
H31 H 0.2473 0.5043 0.1709
C32 C 0.3047(3) 0.3557(7) 0.1837(2)
C33 C 0.3253(3) 0.2238(8) 0.1709(3)
H32 H 0.3531 0.1757 0.1838
C34 C 0.3045(4) 0.1663(9) 0.1397(2)
H33 H 0.3179 0.0776 0.1324
C35 C 0.2384(3) 0.5667(10) 0.2411(2)
H34 H 0.2308 0.6037 0.2648
H35 H 0.2144 0.4859 0.2366
H36 H 0.2310 0.6392 0.2234
C36 C 0.3007(3) 0.5205(9) 0.2387(2)
C37 C 0.3275(3) 0.4238(8) 0.2154(2)
C38 C 0.3839(3) 0.4239(7) 0.22750(19)
C39 C 0.4340(3) 0.3427(8) 0.2142(2)
H37 H 0.4672 0.3735 0.2269
H38 H 0.4389 0.3596 0.1888
H39 H 0.4282 0.2426 0.2183
O1 O 0.1082(5) 1.1811(13) 0.4985(3)
O2 O 0.1793(6) 1.3606(11) 0.5049(3)
O3 O 0.8267(3) 0.4313(8) 0.4231(2)
O4 O 0.8631(2) 0.5133(8) 0.3725(2)
O5 O 0.2075(5) 0.2349(12) 0.0696(3)
O6 O 0.2693(6) 0.0623(11) 0.0713(3)
Cu4 Cu 0.46857(5) 0.79795(12) 0.22282(3)
Cu5 Cu 0.36115(4) 0.73481(12) 0.17234(3)
Cu6 Cu 0.34622(4) 0.93500(12) 0.24038(3)
N7 N 0.4779(2) 0.6820(7) 0.18307(17)
N8 N 0.4296(2) 0.6478(7) 0.16232(19)
N9 N 0.2925(2) 0.8255(7) 0.17977(17)
N10 N 0.2842(2) 0.9043(7) 0.21034(18)
N11 N 0.4088(2) 0.9858(6) 0.26773(17)
N12 N 0.4610(2) 0.9280(7) 0.26047(16)
C40 C 0.7269(10) 0.224(2) 0.0008(5)
H40 H 0.7137 0.2492 -0.0229
H41 H 0.7244 0.1230 0.0040
H42 H 0.7655 0.2541 0.0035
C41 C 0.6425(6) 0.2468(14) 0.0329(3)
C42 C 0.6092(4) 0.3255(10) 0.0600(2)
C43 C 0.5585(4) 0.2702(9) 0.0713(3)
H43 H 0.5464 0.1839 0.0616
C44 C 0.5244(4) 0.3389(8) 0.0968(2)
H44 H 0.4911 0.2967 0.1048
C45 C 0.5411(3) 0.4713(8) 0.10984(18)
C46 C 0.5911(3) 0.5292(9) 0.0976(2)
H45 H 0.6026 0.6184 0.1058
C47 C 0.6251(3) 0.4545(9) 0.0726(2)
H46 H 0.6590 0.4947 0.0648
C48 C 0.4041(4) 0.5132(11) 0.1076(3)
H47 H 0.3889 0.4235 0.1155
H48 H 0.4223 0.5009 0.0846
H49 H 0.3740 0.5815 0.1053
C49 C 0.4467(3) 0.5660(8) 0.1348(2)
C50 C 0.5052(3) 0.5503(7) 0.13600(18)
C51 C 0.5224(3) 0.6233(8) 0.1666(2)
C52 C 0.5805(3) 0.6404(11) 0.1837(3)
H50 H 0.6036 0.7005 0.1687
H51 H 0.5981 0.5486 0.1861
H52 H 0.5766 0.6830 0.2072
C53 C -0.0873(6) 1.0747(17) 0.0864(4)
H53 H -0.0861 1.1363 0.0657
H54 H -0.1100 1.1176 0.1049
H55 H -0.1035 0.9846 0.0796
C54 C -0.0269(3) 1.0089(10) 0.1345(3)
C55 C 0.0332(6) 0.9971(17) 0.1458(4)
C56 C 0.0446(3) 0.9355(9) 0.1794(2)
H56 H 0.0149 0.9119 0.1947
C57 C 0.1009(3) 0.9089(9) 0.1902(2)
H57 H 0.1080 0.8684 0.2127
C58 C 0.1460(3) 0.9426(8) 0.1677(2)
C59 C 0.1353(3) 1.0022(11) 0.1333(3)
H58 H 0.1649 1.0222 0.1175
C60 C 0.0786(3) 1.0307(10) 0.1234(3)
H59 H 0.0714 1.0734 0.1012
C61 C 0.2123(3) 1.0535(12) 0.2393(3)
H60 H 0.1731 1.0351 0.2444
H61 H 0.2167 1.1506 0.2315
H62 H 0.2344 1.0376 0.2606
C62 C 0.2315(3) 0.9573(9) 0.2105(2)
C63 C 0.2048(3) 0.9133(8) 0.1790(2)
C64 C 0.2445(3) 0.8337(8) 0.1595(2)
C65 C 0.2406(4) 0.7661(10) 0.1229(3)
H63 H 0.2427 0.8386 0.1046
H64 H 0.2052 0.7163 0.1208
H65 H 0.2712 0.7000 0.1198
C66 C 0.5250(5) 1.4782(16) 0.4906(3)
H66 H 0.5058 1.4136 0.5065
H67 H 0.5086 1.5714 0.4926
H68 H 0.5644 1.4826 0.4970
C67 C 0.5467(6) 1.3226(14) 0.4402(3)
C68 C 0.5286(4) 1.2622(9) 0.4056(2)
C69 C 0.4893(4) 1.3345(9) 0.3842(3)
H69 H 0.4746 1.4211 0.3920
C70 C 0.4724(3) 1.2777(8) 0.3517(3)
H70 H 0.4471 1.3273 0.3370
C71 C 0.4934(3) 1.1447(8) 0.3406(2)
C72 C 0.5341(3) 1.0779(9) 0.3612(3)
H71 H 0.5497 0.9925 0.3532
C73 C 0.5519(4) 1.1356(10) 0.3934(2)
H72 H 0.5796 1.0897 0.4069
C74 C 0.3628(3) 1.1522(9) 0.3087(2)
H73 H 0.3583 1.2397 0.2955
H74 H 0.3673 1.1731 0.3340
H75 H 0.3300 1.0935 0.3054
C75 C 0.4142(3) 1.0750(7) 0.29523(18)
C76 C 0.4696(3) 1.0748(8) 0.3073(2)
C77 C 0.4980(3) 0.9787(8) 0.2850(2)
C78 C 0.5578(3) 0.9343(10) 0.2828(3)
H76 H 0.5633 0.8491 0.2967
H77 H 0.5815 1.0089 0.2921
H78 H 0.5675 0.9162 0.2580
O7 O 0.6917(4) 0.2961(11) 0.0280(3)
O8 O 0.6297(5) 0.1454(12) 0.0182(3)
O9 O -0.0299(3) 1.0525(10) 0.0999(2)
O10 O -0.0652(3) 0.9807(9) 0.1535(3)
O11 O 0.5195(4) 1.4267(10) 0.4526(2)
O12 O 0.5862(5) 1.2617(10) 0.4581(3)
loop_
_geom_bond_atom_site_label_1
_geom_bond_atom_site_label_2
_geom_bond_site_symmetry_1
_geom_bond_site_symmetry_2
Cu1 N1 1_555 1_555
Cu2 N2 1_555 1_555
Cu3 N4 1_555 1_555
N1 N2 1_555 1_555
N2 C10 1_555 1_555
N3 Cu2 1_555 1_555
N4 N3 1_555 1_555
N5 Cu3 1_555 1_555
N6 Cu1 1_555 1_555
C1 H1 1_555 1_555
H2 C1 1_555 1_555
H3 C1 1_555 1_555
C2 C3 1_555 1_555
C3 C4 1_555 1_555
C4 H4 1_555 1_555
C5 C4 1_555 1_555
H5 C5 1_555 1_555
C6 C5 1_555 1_555
C7 C6 1_555 1_555
H6 C7 1_555 1_555
C8 C3 1_555 1_555
H7 C8 1_555 1_555
C9 H8 1_555 1_555
H9 C9 1_555 1_555
H10 C9 1_555 1_555
C10 C9 1_555 1_555
C11 C6 1_555 1_555
C12 N1 1_555 1_555
C13 C12 1_555 1_555
H11 C13 1_555 1_555
H12 C13 1_555 1_555
H13 C13 1_555 1_555
C14 H14 1_555 1_555
H15 C14 1_555 1_555
H16 C14 1_555 1_555
C15 C16 1_555 1_555
C16 C17 1_555 1_555
C17 H17 1_555 1_555
C18 C17 1_555 1_555
H18 C18 1_555 1_555
C19 C18 1_555 1_555
C20 C19 1_555 1_555
H19 C20 1_555 1_555
C21 C16 1_555 1_555
H20 C21 1_555 1_555
C22 H21 1_555 1_555
H22 C22 1_555 1_555
H23 C22 1_555 1_555
C23 N6 1_555 1_555
C24 C19 1_555 1_555
C25 N5 1_555 1_555
C26 C25 1_555 1_555
H24 C26 1_555 1_555
H25 C26 1_555 1_555
H26 C26 1_555 1_555
C27 H27 1_555 1_555
H28 C27 1_555 1_555
H29 C27 1_555 1_555
C28 C29 1_555 1_555
C29 C30 1_555 1_555
C30 H30 1_555 1_555
C31 C30 1_555 1_555
H31 C31 1_555 1_555
C32 C31 1_555 1_555
C33 C32 1_555 1_555
H32 C33 1_555 1_555
C34 C29 1_555 1_555
H33 C34 1_555 1_555
C35 H34 1_555 1_555
H35 C35 1_555 1_555
H36 C35 1_555 1_555
C36 N3 1_555 1_555
C37 C32 1_555 1_555
C38 N4 1_555 1_555
C39 C38 1_555 1_555
H37 C39 1_555 1_555
H38 C39 1_555 1_555
H39 C39 1_555 1_555
O1 C1 1_555 1_555
O2 C2 1_555 1_555
O3 C14 1_555 1_555
O4 C15 1_555 1_555
O5 C27 1_555 1_555
O6 C28 1_555 1_555
Cu4 N7 1_555 1_555
Cu5 N8 1_555 1_555
Cu6 N10 1_555 1_555
N7 N8 1_555 1_555
N8 C49 1_555 1_555
N9 Cu5 1_555 1_555
N10 N9 1_555 1_555
N11 Cu6 1_555 1_555
N12 Cu4 1_555 1_555
C40 H40 1_555 1_555
H41 C40 1_555 1_555
H42 C40 1_555 1_555
C41 C42 1_555 1_555
C42 C43 1_555 1_555
C43 H43 1_555 1_555
C44 C43 1_555 1_555
H44 C44 1_555 1_555
C45 C44 1_555 1_555
C46 C45 1_555 1_555
H45 C46 1_555 1_555
C47 C42 1_555 1_555
H46 C47 1_555 1_555
C48 H47 1_555 1_555
H48 C48 1_555 1_555
H49 C48 1_555 1_555
C49 C48 1_555 1_555
C50 C45 1_555 1_555
C51 N7 1_555 1_555
C52 C51 1_555 1_555
H50 C52 1_555 1_555
H51 C52 1_555 1_555
H52 C52 1_555 1_555
C53 H53 1_555 1_555
H54 C53 1_555 1_555
H55 C53 1_555 1_555
C54 C55 1_555 1_555
C55 C56 1_555 1_555
C56 H56 1_555 1_555
C57 C56 1_555 1_555
H57 C57 1_555 1_555
C58 C57 1_555 1_555
C59 C58 1_555 1_555
H58 C59 1_555 1_555
C60 C55 1_555 1_555
H59 C60 1_555 1_555
C61 H60 1_555 1_555
H61 C61 1_555 1_555
H62 C61 1_555 1_555
C62 N10 1_555 1_555
C63 C58 1_555 1_555
C64 N9 1_555 1_555
C65 C64 1_555 1_555
H63 C65 1_555 1_555
H64 C65 1_555 1_555
H65 C65 1_555 1_555
C66 H66 1_555 1_555
H67 C66 1_555 1_555
H68 C66 1_555 1_555
C67 C68 1_555 1_555
C68 C69 1_555 1_555
C69 H69 1_555 1_555
C70 C69 1_555 1_555
H70 C70 1_555 1_555
C71 C70 1_555 1_555
C72 C71 1_555 1_555
H71 C72 1_555 1_555
C73 C68 1_555 1_555
H72 C73 1_555 1_555
C74 H73 1_555 1_555
H74 C74 1_555 1_555
H75 C74 1_555 1_555
C75 N11 1_555 1_555
C76 C71 1_555 1_555
C77 N12 1_555 1_555
C78 C77 1_555 1_555
H76 C78 1_555 1_555
H77 C78 1_555 1_555
H78 C78 1_555 1_555
O7 C40 1_555 1_555
O8 C41 1_555 1_555
O9 C53 1_555 1_555
O10 C54 1_555 1_555
O11 C66 1_555 1_555
O12 C67 1_555 1_555
N5 N6 1_555 1_555
C2 O1 1_555 1_555
C7 C8 1_555 1_555
C10 C11 1_555 1_555
C11 C12 1_555 1_555
C15 O3 1_555 1_555
C20 C21 1_555 1_555
C22 C23 1_555 1_555
C23 C24 1_555 1_555
C24 C25 1_555 1_555
C28 O5 1_555 1_555
C33 C34 1_555 1_555
C35 C36 1_555 1_555
C36 C37 1_555 1_555
C37 C38 1_555 1_555
N11 N12 1_555 1_555
C41 O7 1_555 1_555
C46 C47 1_555 1_555
C49 C50 1_555 1_555
C50 C51 1_555 1_555
C54 O9 1_555 1_555
C59 C60 1_555 1_555
C61 C62 1_555 1_555
C62 C63 1_555 1_555
C63 C64 1_555 1_555
C67 O11 1_555 1_555
C72 C73 1_555 1_555
C74 C75 1_555 1_555
C75 C76 1_555 1_555
C76 C77 1_555 1_555

#END
