
#######################################################################
#
#                 Cambridge Crystallographic Data Centre
#                                CCDC 
#
#######################################################################
#
# If this CIF has been generated from an entry in the Cambridge 
# Structural Database, then it will include bibliographic, chemical, 
# crystal, experimental, refinement or atomic coordinate data resulting 
# from the CCDC's data processing and validation procedures.
#
#######################################################################

data_DAKVOB
_chemical_formula_moiety         'C38 H62 Cl3 Ga1 P2'
_chemical_name_systematic        
Trichloro-(P-(5,7-di-t-butyl-3,3-dimethyl-1-phosphaindan-1-methyl)-2,4,6-tri-t-butylphenylphosphoniomethyl)-gallium
_symmetry_cell_setting           triclinic
_symmetry_space_group_name_H-M   'P -1'
_symmetry_Int_Tables_number      2
_space_group_name_Hall           '-P 1'
loop_
_symmetry_equiv_pos_site_id
_symmetry_equiv_pos_as_xyz
1 x,y,z
2 -x,-y,-z
_cell_length_a                   9.8363(4)
_cell_length_b                   11.1839(5)
_cell_length_c                   18.9750(8)
_cell_angle_alpha                87.698(6)
_cell_angle_beta                 81.603(5)
_cell_angle_gamma                85.666(5)
_cell_volume                     2058.23
_exptl_crystal_colour            colorless
_cell_formula_units_Z            2
_exptl_crystal_recrystallization_method acetonitrile
loop_
_atom_site_label
_atom_site_type_symbol
_atom_site_fract_x
_atom_site_fract_y
_atom_site_fract_z
Ga1 Ga 0.16628(3) 0.67711(2) 0.583113(15)
Cl1 Cl -0.05610(7) 0.66667(8) 0.60746(4)
Cl2 Cl 0.23821(10) 0.76339(6) 0.67157(4)
Cl3 Cl 0.21751(8) 0.77480(6) 0.48246(4)
P1 P 0.29252(6) 0.43692(5) 0.65296(3)
H1 H 0.345(2) 0.515(2) 0.6891(12)
P2 P 0.1726(6) 0.4166(4) 0.8109(4)
C1 C 0.4127(2) 0.3063(2) 0.65186(11)
C2 C 0.5285(2) 0.3148(2) 0.68854(12)
C3 C 0.5883(2) 0.2077(2) 0.71370(12)
H2 H 0.6608 0.2117 0.7414
C4 C 0.5481(3) 0.0956(2) 0.70058(13)
C5 C 0.4492(3) 0.0907(2) 0.65518(13)
H3 H 0.4272 0.0144 0.6417
C6 C 0.3814(2) 0.1930(2) 0.62880(12)
C7 C 0.6032(2) 0.4308(2) 0.69611(13)
C8 C 0.6072(3) 0.5124(2) 0.62832(14)
H4 H 0.5158 0.5530 0.6266
H5 H 0.6337 0.4636 0.5861
H6 H 0.6744 0.5724 0.6293
C9 C 0.5460(3) 0.5011(2) 0.76296(14)
H7 H 0.6004 0.5703 0.7654
H8 H 0.5512 0.4489 0.8054
H9 H 0.4497 0.5289 0.7609
C10 C 0.7582(3) 0.3960(3) 0.70131(18)
H10 H 0.8093 0.4685 0.6962
H11 H 0.7962 0.3410 0.6633
H12 H 0.7664 0.3566 0.7477
C11 C 0.6197(3) -0.0187(2) 0.72963(15)
C12 C 0.6340(7) -0.0051(4) 0.8068(3)
H13 H 0.6781 -0.0791 0.8251
H14 H 0.5426 0.0108 0.8345
H15 H 0.6906 0.0620 0.8112
C13 C 0.7764(5) -0.0248(5) 0.6856(3)
H16 H 0.8219 0.0467 0.6949
H17 H 0.7722 -0.0282 0.6345
H18 H 0.8287 -0.0967 0.7011
C14 C 0.5596(8) -0.1304(5) 0.7166(4)
H19 H 0.6085 -0.1982 0.7388
H20 H 0.5680 -0.1417 0.6652
H21 H 0.4620 -0.1261 0.7372
C15 C 0.2948(3) 0.1765(2) 0.56771(13)
C16 C 0.2911(3) 0.0440(2) 0.55055(15)
H22 H 0.2408 0.0377 0.5101
H23 H 0.2447 0.0010 0.5922
H24 H 0.3854 0.0086 0.5384
C17 C 0.3699(3) 0.2373(2) 0.50006(13)
H25 H 0.4610 0.1959 0.4872
H26 H 0.3802 0.3215 0.5093
H27 H 0.3160 0.2330 0.4608
C18 C 0.1422(3) 0.2243(2) 0.58184(14)
H28 H 0.0956 0.2049 0.5419
H29 H 0.1367 0.3115 0.5866
H30 H 0.0974 0.1869 0.6259
C19 C 0.2616(3) 0.5140(2) 0.57253(13)
H31 H 0.2057 0.4644 0.5475
H32 H 0.3511 0.5211 0.5417
C20 C 0.1374(3) 0.4103(2) 0.71431(13)
H33 H 0.097(2) 0.338(2) 0.7050(12)
H34 H 0.077(3) 0.477(3) 0.7052(15)
C21 C 0.0037(3) 0.3811(3) 0.85936(19)
C22 C -0.0997(4) 0.4668(3) 0.8848(2)
C23 C -0.2212(3) 0.4314(3) 0.9242(2)
H35 H -0.2919 0.4900 0.9415
C25 C -0.1361(4) 0.2245(3) 0.9127(2)
H36 H -0.1485 0.1417 0.9222
C26 C -0.0145(4) 0.2600(3) 0.8733(2)
C27 C -0.0788(6) 0.6061(6) 0.8791(3)
C28 C -0.0329(7) 0.6506(5) 0.8025(3)
H37 H -0.0320 0.7382 0.8012
H38 H -0.0972 0.6268 0.7716
H39 H 0.0598 0.6152 0.7857
C29 C -0.2123(5) 0.6803(5) 0.9056(3)
H40 H -0.2382 0.6644 0.9567
H41 H -0.2859 0.6582 0.8799
H42 H -0.1984 0.7658 0.8969
C30 C 0.0287(7) 0.6352(6) 0.9246(3)
H43 H 0.1133 0.5840 0.9115
H44 H -0.0065 0.6206 0.9750
H45 H 0.0486 0.7196 0.9167
C31 C -0.3745(3) 0.2659(2) 0.98139(14)
C32 C -0.4924(3) 0.3102(4) 0.94041(19)
H46 H -0.4944 0.3977 0.9343
H47 H -0.5801 0.2874 0.9671
H48 H -0.4782 0.2739 0.8935
C33 C -0.3937(4) 0.3226(4) 1.05408(17)
H49 H -0.3227 0.2878 1.0816
H50 H -0.4850 0.3073 1.0796
H51 H -0.3857 0.4093 1.0478
C34 C -0.3835(4) 0.1309(3) 0.9944(2)
H52 H -0.3799 0.0920 0.9487
H53 H -0.4704 0.1156 1.0247
H54 H -0.3061 0.0983 1.0181
C35 C 0.1051(7) 0.1699(6) 0.8454(3)
C36 C 0.0718(8) 0.1012(8) 0.7847(5)
H55 H 0.1529 0.0502 0.7653
H56 H 0.0450 0.1574 0.7474
H57 H -0.0044 0.0509 0.8017
C37 C 0.1422(8) 0.0824(7) 0.9052(4)
H58 H 0.0675 0.0292 0.9189
H59 H 0.1554 0.1278 0.9465
H60 H 0.2275 0.0345 0.8884
C38 C 0.2326(5) 0.2461(5) 0.8216(3)
H61 H 0.2827 0.2171 0.7757
H62 H 0.2962 0.2361 0.8576
C53 C -0.2332(3) 0.2891(4) 0.9369(2)
C24? C -0.2394(3) 0.3102(4) 0.9381(2)
P3? P 0.1802(6) 0.3886(4) 0.8065(4)
C39? C 0.7308(17) -0.0038(10) 0.7679(9)
H63? H 0.7656 -0.0824 0.7851
H64? H 0.6987 0.0475 0.8085
H65? H 0.8047 0.0336 0.7364
C40? C 0.6400(17) -0.1146(12) 0.6775(7)
H66? H 0.7027 -0.0897 0.6354
H67? H 0.5511 -0.1300 0.6634
H68? H 0.6796 -0.1878 0.6989
C41? C 0.4909(11) -0.0756(10) 0.7910(6)
H69? H 0.5244 -0.1530 0.8104
H70? H 0.4104 -0.0864 0.7676
H71? H 0.4649 -0.0194 0.8299
C42? C -0.0408(9) 0.5654(6) 0.8720(4)
C43? C -0.1199(7) 0.6306(5) 0.8169(3)
H72? H -0.1067 0.5845 0.7733
H73? H -0.0857 0.7103 0.8061
H74? H -0.2182 0.6389 0.8359
C44? C 0.1199(6) 0.5536(5) 0.8432(3)
H75? H 0.1722 0.5701 0.8821
H76? H 0.1410 0.6141 0.8043
C45? C -0.0640(8) 0.6363(6) 0.9398(3)
H77? H -0.1614 0.6375 0.9605
H78? H -0.0384 0.7187 0.9287
H79? H -0.0072 0.5986 0.9740
C46? C 0.0956(6) 0.1153(5) 0.8579(3)
C47? C 0.1466(8) 0.1124(8) 0.7776(3)
H80? H 0.2033 0.1801 0.7634
H81? H 0.0673 0.1181 0.7514
H82? H 0.2017 0.0370 0.7665
C48? C 0.2186(7) 0.1265(7) 0.8983(4)
H83? H 0.2844 0.0568 0.8891
H84? H 0.1859 0.1302 0.9495
H85? H 0.2639 0.1998 0.8820
C49? C 0.0353(7) -0.0059(5) 0.8800(3)
H86? H -0.0405 -0.0170 0.8532
H87? H 0.0008 -0.0071 0.9311
H88? H 0.1072 -0.0709 0.8697
C50? C 0.0181(3) 0.3440(3) 0.85982(19)
C51? C -0.0790(4) 0.4356(3) 0.8838(2)
C52? C -0.2047(3) 0.4082(3) 0.9224(2)
H89? H -0.2710 0.4708 0.9387
C54? C -0.1361(4) 0.1975(3) 0.9129(2)
H90? H -0.1556 0.1161 0.9229
C55? C -0.0105(3) 0.2249(3) 0.8744(2)
loop_
_geom_bond_atom_site_label_1
_geom_bond_atom_site_label_2
_geom_bond_site_symmetry_1
_geom_bond_site_symmetry_2
Ga1 Cl1 1_555 1_555
Cl2 Ga1 1_555 1_555
Cl3 Ga1 1_555 1_555
P1 H1 1_555 1_555
P2 C20 1_555 1_555
C1 P1 1_555 1_555
C2 C1 1_555 1_555
C3 C2 1_555 1_555
H2 C3 1_555 1_555
C4 C3 1_555 1_555
C5 C4 1_555 1_555
H3 C5 1_555 1_555
C6 C1 1_555 1_555
C7 C2 1_555 1_555
C8 C7 1_555 1_555
H4 C8 1_555 1_555
H5 C8 1_555 1_555
H6 C8 1_555 1_555
C9 C7 1_555 1_555
H7 C9 1_555 1_555
H8 C9 1_555 1_555
H9 C9 1_555 1_555
C10 C7 1_555 1_555
H10 C10 1_555 1_555
H11 C10 1_555 1_555
H12 C10 1_555 1_555
C11 C4 1_555 1_555
C12 C11 1_555 1_555
H13 C12 1_555 1_555
H14 C12 1_555 1_555
H15 C12 1_555 1_555
C13 C11 1_555 1_555
H16 C13 1_555 1_555
H17 C13 1_555 1_555
H18 C13 1_555 1_555
C14 C11 1_555 1_555
H19 C14 1_555 1_555
H20 C14 1_555 1_555
H21 C14 1_555 1_555
C15 C6 1_555 1_555
C16 C15 1_555 1_555
H22 C16 1_555 1_555
H23 C16 1_555 1_555
H24 C16 1_555 1_555
C17 C15 1_555 1_555
H25 C17 1_555 1_555
H26 C17 1_555 1_555
H27 C17 1_555 1_555
C18 C15 1_555 1_555
H28 C18 1_555 1_555
H29 C18 1_555 1_555
H30 C18 1_555 1_555
C19 Ga1 1_555 1_555
H31 C19 1_555 1_555
H32 C19 1_555 1_555
C20 P1 1_555 1_555
H33 C20 1_555 1_555
H34 C20 1_555 1_555
C21 P2 1_555 1_555
C22 C21 1_555 1_555
C23 C22 1_555 1_555
H35 C23 1_555 1_555
C25 H36 1_555 1_555
C26 C21 1_555 1_555
C27 C22 1_555 1_555
C28 C27 1_555 1_555
H37 C28 1_555 1_555
H38 C28 1_555 1_555
H39 C28 1_555 1_555
C29 C27 1_555 1_555
H40 C29 1_555 1_555
H41 C29 1_555 1_555
H42 C29 1_555 1_555
C30 C27 1_555 1_555
H43 C30 1_555 1_555
H44 C30 1_555 1_555
H45 C30 1_555 1_555
C31 C32 1_555 1_555
C32 H46 1_555 1_555
H47 C32 1_555 1_555
H48 C32 1_555 1_555
C33 C31 1_555 1_555
H49 C33 1_555 1_555
H50 C33 1_555 1_555
H51 C33 1_555 1_555
C34 C31 1_555 1_555
H52 C34 1_555 1_555
H53 C34 1_555 1_555
H54 C34 1_555 1_555
C35 C26 1_555 1_555
C36 C35 1_555 1_555
H55 C36 1_555 1_555
H56 C36 1_555 1_555
H57 C36 1_555 1_555
C37 C35 1_555 1_555
H58 C37 1_555 1_555
H59 C37 1_555 1_555
H60 C37 1_555 1_555
C38 P2 1_555 1_555
H61 C38 1_555 1_555
H62 C38 1_555 1_555
C53 C23 1_555 1_555
P1 C19 1_555 1_555
C5 C6 1_555 1_555
C25 C53 1_555 1_555
C25 C26 1_555 1_555
C31 C53 1_555 1_555
C35 C38 1_555 1_555

#END
