
#######################################################################
#
#                 Cambridge Crystallographic Data Centre
#                                CCDC 
#
#######################################################################
#
# If this CIF has been generated from an entry in the Cambridge 
# Structural Database, then it will include bibliographic, chemical, 
# crystal, experimental, refinement or atomic coordinate data resulting 
# from the CCDC's data processing and validation procedures.
#
#######################################################################

data_DEVZOU
_chemical_formula_moiety         'C37 H68 Br2 Fe1 Si7,0.5(C6 H6)'
_chemical_name_systematic        
'Ferrocenyl-(2,4,6-tris(bis(trimethylsilyl)methyl)phenyl)-dibromosilane benzene solvate'
_symmetry_cell_setting           triclinic
_symmetry_space_group_name_H-M   'P -1'
_symmetry_Int_Tables_number      2
_space_group_name_Hall           '-P 1'
loop_
_symmetry_equiv_pos_site_id
_symmetry_equiv_pos_as_xyz
1 x,y,z
2 -x,-y,-z
_cell_length_a                   11.0976(2)
_cell_length_b                   12.8543(2)
_cell_length_c                   17.5022(3)
_cell_angle_alpha                97.2351(8)
_cell_angle_beta                 91.7973(10)
_cell_angle_gamma                99.0209(9)
_cell_volume                     2442.88
_exptl_crystal_colour            yellow
_exptl_crystal_description       prism
_chemical_melting_point          149deg.C(dec.)
_cell_formula_units_Z            2
loop_
_atom_site_label
_atom_site_type_symbol
_atom_site_fract_x
_atom_site_fract_y
_atom_site_fract_z
Si1 Si -0.00196(6) 0.94368(5) 0.20064(4)
Br1 Br 0.10230(2) 1.012051(19) 0.107037(14)
Br2 Br 0.12970(2) 0.90455(2) 0.288817(15)
C1 C -0.0739(2) 0.81088(19) 0.15377(14)
C2 C -0.1135(2) 0.7818(2) 0.07384(15)
H1 H -0.1085 0.8284 0.0356
C3 C -0.1615(2) 0.6712(2) 0.06181(17)
H2 H -0.1943 0.6313 0.0142
C4 C -0.1519(3) 0.6309(2) 0.13301(18)
H3 H -0.1773 0.5593 0.1414
C5 C -0.0981(2) 0.7151(2) 0.18968(16)
H4 H -0.0809 0.7096 0.2424
Fe1 Fe 0.01796(3) 0.69635(3) 0.10336(2)
C6 C 0.2013(2) 0.7560(2) 0.11146(17)
H5 H 0.2378 0.8259 0.1329
C7 C 0.1618(2) 0.7228(2) 0.03324(17)
H6 H 0.1670 0.7663 -0.0069
C8 C 0.1133(3) 0.6133(2) 0.02554(17)
H7 H 0.0804 0.5703 -0.0208
C9 C 0.1224(3) 0.5789(2) 0.09867(17)
H8 H 0.0963 0.5088 0.1100
C10 C 0.1772(3) 0.6670(2) 0.15227(18)
H9 H 0.1945 0.6665 0.2057
C11 C -0.0913(2) 1.04362(17) 0.24982(12)
C12 C -0.0293(2) 1.14321(17) 0.28790(12)
C13 C -0.0957(2) 1.21528(17) 0.32699(12)
H10 H -0.0530 1.2814 0.3518
C14 C -0.2223(2) 1.19362(17) 0.33094(12)
C15 C -0.2818(2) 1.09697(17) 0.29216(12)
H11 H -0.3682 1.0813 0.2934
C16 C -0.2212(2) 1.02219(17) 0.25164(12)
C17 C 0.1088(2) 1.17798(17) 0.28922(13)
H12 H 0.1392 1.1157 0.2607
C18 C -0.2948(2) 1.26942(18) 0.37515(13)
H13 H -0.3808 1.2314 0.3655
C19 C -0.3017(2) 0.92355(17) 0.21035(12)
H14 H -0.2427 0.8794 0.1864
Si2 Si 0.18293(6) 1.19087(5) 0.39061(4)
Si3 Si 0.15228(6) 1.28935(5) 0.22807(4)
Si4 Si -0.26886(6) 1.27416(5) 0.48301(4)
Si5 Si -0.29840(6) 1.39465(5) 0.32937(4)
Si6 Si -0.38469(6) 0.83836(5) 0.27939(4)
Si7 Si -0.39034(6) 0.95804(5) 0.12504(4)
C20 C 0.0857(2) 1.1037(2) 0.45013(15)
H15 H 0.1316 1.0988 0.4979
H16 H 0.0627 1.0326 0.4211
H17 H 0.0119 1.1340 0.4626
C21 C 0.3377(2) 1.1513(2) 0.38156(18)
H18 H 0.3862 1.1966 0.3489
H19 H 0.3290 1.0769 0.3582
H20 H 0.3790 1.1595 0.4328
C22 C 0.2091(3) 1.3285(2) 0.44501(16)
H21 H 0.2269 1.3249 0.4997
H22 H 0.1357 1.3610 0.4393
H23 H 0.2783 1.3715 0.4244
C23 C 0.3009(3) 1.2718(3) 0.1853(2)
H24 H 0.3223 1.3250 0.1505
H25 H 0.2936 1.2004 0.1565
H26 H 0.3648 1.2806 0.2266
C24 C 0.1758(3) 1.4277(2) 0.28102(18)
H27 H 0.2508 1.4396 0.3142
H28 H 0.1061 1.4369 0.3127
H29 H 0.1830 1.4790 0.2438
C25 C 0.0295(3) 1.2829(2) 0.15087(15)
H30 H 0.0630 1.3206 0.1090
H31 H -0.0377 1.3163 0.1725
H32 H -0.0010 1.2084 0.1307
C26 C -0.2854(3) 1.1336(2) 0.50307(15)
H33 H -0.3693 1.0979 0.4890
H34 H -0.2673 1.1324 0.5581
H35 H -0.2284 1.0967 0.4727
C27 C -0.1151(3) 1.3458(3) 0.52158(17)
H36 H -0.0517 1.3085 0.4988
H37 H -0.1095 1.3481 0.5778
H38 H -0.1036 1.4184 0.5084
C28 C -0.3859(3) 1.3417(2) 0.53480(16)
H39 H -0.3751 1.4162 0.5258
H40 H -0.3762 1.3381 0.5902
H41 H -0.4678 1.3061 0.5155
C29 C -0.1578(3) 1.4957(2) 0.3496(2)
H42 H -0.0883 1.4669 0.3269
H43 H -0.1419 1.5136 0.4055
H44 H -0.1690 1.5598 0.3271
C30 C -0.4321(3) 1.4566(3) 0.3632(2)
H45 H -0.4452 1.5115 0.3312
H46 H -0.4160 1.4887 0.4171
H47 H -0.5052 1.4020 0.3590
C31 C -0.3196(3) 1.3554(2) 0.22275(16)
H48 H -0.3215 1.4189 0.1974
H49 H -0.3967 1.3064 0.2106
H50 H -0.2517 1.3204 0.2043
C32 C -0.4465(3) 0.7047(2) 0.22722(18)
H51 H -0.3810 0.6751 0.2002
H52 H -0.5118 0.7108 0.1898
H53 H -0.4794 0.6578 0.2642
C33 C -0.2729(3) 0.8255(3) 0.35809(17)
H54 H -0.3134 0.7799 0.3936
H55 H -0.2417 0.8960 0.3862
H56 H -0.2049 0.7940 0.3358
C34 C -0.5142(3) 0.8931(3) 0.3270(2)
H57 H -0.5768 0.8989 0.2877
H58 H -0.4840 0.9636 0.3553
H59 H -0.5497 0.8456 0.3629
C35 C -0.2823(3) 1.0508(2) 0.07579(15)
H60 H -0.3233 1.0667 0.0292
H61 H -0.2110 1.0177 0.0616
H62 H -0.2558 1.1169 0.1107
C36 C -0.5237(3) 1.0255(2) 0.15145(16)
H63 H -0.5682 1.0356 0.1044
H64 H -0.4946 1.0948 0.1819
H65 H -0.5783 0.9815 0.1819
C37 C -0.4468(3) 0.8350(2) 0.05709(16)
H66 H -0.5152 0.7928 0.0791
H67 H -0.3807 0.7932 0.0486
H68 H -0.4743 0.8544 0.0078
C38 C 0.4239(4) 0.5637(3) -0.0244(3)
H69 H 0.3710 0.6083 -0.0416
C39 C 0.4199(3) 0.5395(4) 0.0476(2)
H70 H 0.3637 0.5668 0.0814
C40 C 0.5042(4) 0.5242(3) -0.0731(2)
H71 H 0.5072 0.5409 -0.1244
C38A C 0.5761(4) 0.4363(3) 0.0244(3)
H69A H 0.6290 0.3917 0.0416
C39A C 0.5801(3) 0.4605(4) -0.0476(2)
H70A H 0.6363 0.4332 -0.0814
C40A C 0.4958(4) 0.4758(3) 0.0731(2)
H71A H 0.4928 0.4591 0.1244
loop_
_geom_bond_atom_site_label_1
_geom_bond_atom_site_label_2
_geom_bond_site_symmetry_1
_geom_bond_site_symmetry_2
Si1 Br1 1_555 1_555
Br2 Si1 1_555 1_555
C1 Si1 1_555 1_555
C2 C1 1_555 1_555
H1 C2 1_555 1_555
C3 C2 1_555 1_555
H2 C3 1_555 1_555
C4 C3 1_555 1_555
H3 C4 1_555 1_555
C5 C1 1_555 1_555
H4 C5 1_555 1_555
Fe1 C1 1_555 1_555
C6 Fe1 1_555 1_555
H5 C6 1_555 1_555
C7 Fe1 1_555 1_555
H6 C7 1_555 1_555
C8 Fe1 1_555 1_555
H7 C8 1_555 1_555
C9 Fe1 1_555 1_555
H8 C9 1_555 1_555
C10 Fe1 1_555 1_555
H9 C10 1_555 1_555
C11 Si1 1_555 1_555
C12 C11 1_555 1_555
C13 C12 1_555 1_555
H10 C13 1_555 1_555
C14 C13 1_555 1_555
C15 C14 1_555 1_555
H11 C15 1_555 1_555
C16 C11 1_555 1_555
C17 C12 1_555 1_555
H12 C17 1_555 1_555
C18 C14 1_555 1_555
H13 C18 1_555 1_555
C19 C16 1_555 1_555
H14 C19 1_555 1_555
Si2 C17 1_555 1_555
Si3 C17 1_555 1_555
Si4 C18 1_555 1_555
Si5 C18 1_555 1_555
Si6 C19 1_555 1_555
Si7 C19 1_555 1_555
C20 Si2 1_555 1_555
H15 C20 1_555 1_555
H16 C20 1_555 1_555
H17 C20 1_555 1_555
C21 Si2 1_555 1_555
H18 C21 1_555 1_555
H19 C21 1_555 1_555
H20 C21 1_555 1_555
C22 Si2 1_555 1_555
H21 C22 1_555 1_555
H22 C22 1_555 1_555
H23 C22 1_555 1_555
C23 Si3 1_555 1_555
H24 C23 1_555 1_555
H25 C23 1_555 1_555
H26 C23 1_555 1_555
C24 Si3 1_555 1_555
H27 C24 1_555 1_555
H28 C24 1_555 1_555
H29 C24 1_555 1_555
C25 Si3 1_555 1_555
H30 C25 1_555 1_555
H31 C25 1_555 1_555
H32 C25 1_555 1_555
C26 Si4 1_555 1_555
H33 C26 1_555 1_555
H34 C26 1_555 1_555
H35 C26 1_555 1_555
C27 Si4 1_555 1_555
H36 C27 1_555 1_555
H37 C27 1_555 1_555
H38 C27 1_555 1_555
C28 Si4 1_555 1_555
H39 C28 1_555 1_555
H40 C28 1_555 1_555
H41 C28 1_555 1_555
C29 Si5 1_555 1_555
H42 C29 1_555 1_555
H43 C29 1_555 1_555
H44 C29 1_555 1_555
C30 Si5 1_555 1_555
H45 C30 1_555 1_555
H46 C30 1_555 1_555
H47 C30 1_555 1_555
C31 Si5 1_555 1_555
H48 C31 1_555 1_555
H49 C31 1_555 1_555
H50 C31 1_555 1_555
C32 Si6 1_555 1_555
H51 C32 1_555 1_555
H52 C32 1_555 1_555
H53 C32 1_555 1_555
C33 Si6 1_555 1_555
H54 C33 1_555 1_555
H55 C33 1_555 1_555
H56 C33 1_555 1_555
C34 Si6 1_555 1_555
H57 C34 1_555 1_555
H58 C34 1_555 1_555
H59 C34 1_555 1_555
C35 Si7 1_555 1_555
H60 C35 1_555 1_555
H61 C35 1_555 1_555
H62 C35 1_555 1_555
C36 Si7 1_555 1_555
H63 C36 1_555 1_555
H64 C36 1_555 1_555
H65 C36 1_555 1_555
C37 Si7 1_555 1_555
H66 C37 1_555 1_555
H67 C37 1_555 1_555
H68 C37 1_555 1_555
C38 H69 1_555 1_555
C39 C38 1_555 1_555
H70 C39 1_555 1_555
C40 C38 1_555 1_555
H71 C40 1_555 1_555
C38A H69A 1_555 1_555
C39A C40 1_555 1_555
H70A C39A 1_555 1_555
C40A C39 1_555 1_555
H71A C40A 1_555 1_555
C2 Fe1 1_555 1_555
C3 Fe1 1_555 1_555
C4 C5 1_555 1_555
C4 Fe1 1_555 1_555
C5 Fe1 1_555 1_555
C6 C7 1_555 1_555
C6 C10 1_555 1_555
C7 C8 1_555 1_555
C8 C9 1_555 1_555
C9 C10 1_555 1_555
C15 C16 1_555 1_555
C38A C39A 1_555 1_555
C38A C40A 1_555 1_555

#END
