
#######################################################################
#
#                 Cambridge Crystallographic Data Centre
#                                CCDC 
#
#######################################################################
#
# If this CIF has been generated from an entry in the Cambridge 
# Structural Database, then it will include bibliographic, chemical, 
# crystal, experimental, refinement or atomic coordinate data resulting 
# from the CCDC's data processing and validation procedures.
#
#######################################################################

data_EABHEU
_chemical_name_common            
'(4R,5R)-4,5-bis(bis(p-Fluorophenyl)(hydroxy)methyl)-2,2-dimethyl-1,3-dioxolane propanol clathrate'
_chemical_formula_moiety         '2(C31 H26 F4 O4),C3 H8 O1'
_chemical_name_systematic        
"(4R,5R)-2,2-Dimethyl-\a,\a,\a',\a'-tetrakis(p-fluorophenyl)-1,3-dioxolane-4,5-dimethanol propanol clathrate"
_symmetry_cell_setting           monoclinic
_symmetry_space_group_name_H-M   'P 21'
_symmetry_Int_Tables_number      4
_space_group_name_Hall           'P 2yb'
loop_
_symmetry_equiv_pos_site_id
_symmetry_equiv_pos_as_xyz
1 x,y,z
2 -x,1/2+y,-z
_cell_length_a                   9.833(4)
_cell_length_b                   24.081(11)
_cell_length_c                   12.353(6)
_cell_angle_alpha                90
_cell_angle_beta                 102.28(3)
_cell_angle_gamma                90
_cell_volume                     2858.12
_cell_formula_units_Z            2
loop_
_atom_site_label
_atom_site_type_symbol
_atom_site_fract_x
_atom_site_fract_y
_atom_site_fract_z
O1 O 0.3146(11) 0.5793 0.3820(7)
C1 C 0.2861(16) 0.5244(7) 0.3377(12)
C2 C 0.2178(16) 0.4967(6) 0.4278(12)
C3 C 0.3070(14) 0.4923(7) 0.5445(11)
C4 C 0.3150(17) 0.5392(8) 0.6324(13)
O2 O 0.4074(11) 0.5791(5) 0.6029(8)
C5 C 0.4176(11) 0.4962(4) 0.3269(7)
C6 C 0.5458(11) 0.5175(4) 0.3817(7)
C7 C 0.6686(11) 0.4905(4) 0.3731(7)
C8 C 0.6632(11) 0.4422(4) 0.3099(7)
C9 C 0.5350(11) 0.4210(4) 0.2551(7)
C10 C 0.4121(11) 0.4480(4) 0.2637(7)
C11 C 0.1857(10) 0.5310(4) 0.2257(8)
C12 C 0.0506(10) 0.5097(4) 0.2038(8)
C13 C -0.0351(10) 0.5164(4) 0.0991(8)
C14 C 0.0141(10) 0.5445(4) 0.0163(8)
C15 C 0.1492(10) 0.5657(4) 0.0382(8)
C16 C 0.2349(10) 0.5590(4) 0.1429(8)
C17 C 0.3883(9) 0.5165(5) 0.7422(8)
C18 C 0.3213(9) 0.5046(5) 0.8286(8)
C19 C 0.3962(9) 0.4827(5) 0.9282(8)
C20 C 0.5381(9) 0.4718(5) 0.9412(8)
C21 C 0.6051(9) 0.4829(5) 0.8548(8)
C22 C 0.5303(9) 0.5047(5) 0.7552(8)
C23 C 0.1786(11) 0.5642(4) 0.6384(7)
C24 C 0.1779(11) 0.6213(4) 0.6577(7)
C25 C 0.0561(11) 0.6474(4) 0.6716(7)
C26 C -0.0651(11) 0.6164(4) 0.6661(7)
C27 C -0.0644(11) 0.5594(4) 0.6468(7)
C28 C 0.0574(11) 0.5333(4) 0.6330(7)
O3 O 0.1830(11) 0.4407(4) 0.3948(7)
C29 C 0.2091(17) 0.4048(7) 0.4894(13)
C30 C 0.0832(15) 0.3752(7) 0.4992(13)
C31 C 0.3329(16) 0.3641(7) 0.4832(13)
O4 O 0.2455(10) 0.4420(5) 0.5821(8)
F1 F 0.7793(11) 0.4159(6) 0.2988(10)
F2 F -0.0727(14) 0.5511(6) -0.0809(9)
F3 F 0.6119(13) 0.4507(5) 1.0368(8)
F4 F -0.1864(14) 0.6399(6) 0.6800(12)
H1 H 0.1363 0.5223 0.4330
H2 H 0.4093 0.4911 0.5371
H3 H 0.5497 0.5528 0.4279
H4 H 0.7623 0.5060 0.4132
H5 H 0.5310 0.3857 0.2089
H6 H 0.3184 0.4324 0.2237
H7 H 0.0146 0.4892 0.2643
H8 H -0.1339 0.5009 0.0830
H9 H 0.1852 0.5862 -0.0223
H10 H 0.3337 0.5746 0.1590
H11 H 0.2175 0.5125 0.8191
H12 H 0.3471 0.4747 0.9914
H13 H 0.7089 0.4749 0.8643
H14 H 0.5793 0.5128 0.6920
H15 H 0.2665 0.6439 0.6617
H16 H 0.0557 0.6891 0.6857
H17 H -0.1530 0.5367 0.6428
H18 H 0.0579 0.4915 0.6188
H19 H 0.0541 0.3476 0.4359
H20 H 0.0055 0.4034 0.4976
H21 H 0.1017 0.3545 0.5729
H22 H 0.3496 0.3380 0.5497
H23 H 0.4203 0.3872 0.4844
H24 H 0.3101 0.3414 0.4119
O5 O 0.5747(18) 0.1498(9) 1.0332(15)
C32 C 0.4193(20) 0.1527(9) 1.0005(17)
C33 C 0.3623(25) 0.1405(16) 1.1017(20)
C34 C 0.3672(24) 0.1116(14) 0.9123(18)
O6 O 0.8000(11) 0.1740(4) 0.7351(8)
C35 C 0.8526(17) 0.2217(7) 0.6837(12)
C36 C 0.8558(16) 0.2712(7) 0.7595(11)
C37 C 0.7165(16) 0.2919(7) 0.7868(12)
C38 C 0.6807(15) 0.2713(7) 0.8928(12)
O7 O 0.6518(11) 0.2136(5) 0.8741(8)
C39 C 0.9951(10) 0.2032(4) 0.6706(8)
C40 C 1.0063(10) 0.1505(4) 0.6265(8)
C41 C 1.1354(10) 0.1312(4) 0.6130(8)
C42 C 1.2532(10) 0.1646(4) 0.6435(8)
C43 C 1.2420(10) 0.2173(4) 0.6876(8)
C44 C 1.1129(10) 0.2366(4) 0.7011(8)
C45 C 0.7577(10) 0.2312(4) 0.5700(7)
C46 C 0.6189(10) 0.2142(4) 0.5487(7)
C47 C 0.5316(10) 0.2261(4) 0.4467(7)
C48 C 0.5830(10) 0.2550(4) 0.3660(7)
C49 C 0.7218(10) 0.2720(4) 0.3874(7)
C50 C 0.8091(10) 0.2601(4) 0.4893(7)
C51 C 0.7976(11) 0.2791(4) 0.9916(8)
C52 C 0.8878(11) 0.2347(4) 1.0254(8)
C53 C 1.0046(11) 0.2419(4) 1.1108(8)
C54 C 1.0312(11) 0.2935(4) 1.1623(8)
C55 C 0.9411(11) 0.3379(4) 1.1285(8)
C56 C 0.8242(11) 0.3307(4) 1.0431(8)
C57 C 0.5504(10) 0.2983(4) 0.9121(7)
C58 C 0.5124(10) 0.2881(4) 1.0128(7)
C59 C 0.3878(10) 0.3094(4) 1.0323(7)
C60 C 0.3012(10) 0.3409(4) 0.9510(7)
C61 C 0.3391(10) 0.3511(4) 0.8503(7)
C62 C 0.4637(10) 0.3298(4) 0.8308(7)
O8 O 0.9038(10) 0.3197(5) 0.7071(8)
C63 C 0.8275(17) 0.3663(8) 0.7211(13)
C64 C 0.7349(17) 0.3846(8) 0.6138(12)
C65 C 0.9258(16) 0.4111(7) 0.7795(13)
O9 O 0.7410(10) 0.3509(5) 0.7966(8)
F5 F 1.3774(12) 0.1481(5) 0.6306(12)
F6 F 0.5012(13) 0.2667(6) 0.2699(8)
F7 F 1.1425(13) 0.3020(6) 1.2456(10)
F8 F 0.1824(11) 0.3610(6) 0.9667(9)
H25 H 0.9166 0.2563 0.8290
H26 H 0.6359 0.2778 0.7282
H27 H 0.9201 0.1261 0.6042
H28 H 1.1435 0.0926 0.5808
H29 H 1.3282 0.2417 0.7100
H30 H 1.1047 0.2752 0.7334
H31 H 0.5813 0.1931 0.6076
H32 H 0.4301 0.2137 0.4311
H33 H 0.7594 0.2931 0.3284
H34 H 0.9106 0.2725 0.5049
H35 H 0.8683 0.1970 0.9878
H36 H 1.0705 0.2094 1.1355
H37 H 0.9605 0.3756 1.1662
H38 H 0.7583 0.3631 1.0184
H39 H 0.5758 0.2650 1.0723
H40 H 0.3601 0.3019 1.1059
H41 H 0.2758 0.3742 0.7908
H42 H 0.4915 0.3373 0.7572
H43 H 0.6803 0.4191 0.6270
H44 H 0.6672 0.3538 0.5813
H45 H 0.7968 0.3940 0.5597
H46 H 0.8721 0.4460 0.7910
H47 H 0.9944 0.4201 0.7306
H48 H 0.9789 0.3967 0.8543
loop_
_geom_bond_atom_site_label_1
_geom_bond_atom_site_label_2
_geom_bond_site_symmetry_1
_geom_bond_site_symmetry_2
O1 C1 1_555 1_555
C1 C2 1_555 1_555
C2 C3 1_555 1_555
C3 C4 1_555 1_555
C4 O2 1_555 1_555
C5 C1 1_555 1_555
C6 C5 1_555 1_555
C7 C6 1_555 1_555
C8 C7 1_555 1_555
C9 C8 1_555 1_555
C10 C5 1_555 1_555
C11 C1 1_555 1_555
C12 C11 1_555 1_555
C13 C12 1_555 1_555
C14 C13 1_555 1_555
C15 C14 1_555 1_555
C16 C11 1_555 1_555
C17 C4 1_555 1_555
C18 C17 1_555 1_555
C19 C18 1_555 1_555
C20 C19 1_555 1_555
C21 C20 1_555 1_555
C22 C17 1_555 1_555
C23 C4 1_555 1_555
C24 C23 1_555 1_555
C25 C24 1_555 1_555
C26 C25 1_555 1_555
C27 C26 1_555 1_555
C28 C23 1_555 1_555
O3 C2 1_555 1_555
C29 O3 1_555 1_555
C30 C29 1_555 1_555
C31 C29 1_555 1_555
O4 C3 1_555 1_555
F1 C8 1_555 1_555
F2 C14 1_555 1_555
F3 C20 1_555 1_555
F4 C26 1_555 1_555
O5 C32 1_555 1_555
C32 C33 1_555 1_555
C34 C32 1_555 1_555
O6 C35 1_555 1_555
C35 C36 1_555 1_555
C36 C37 1_555 1_555
C37 C38 1_555 1_555
C38 O7 1_555 1_555
C39 C35 1_555 1_555
C40 C39 1_555 1_555
C41 C40 1_555 1_555
C42 C41 1_555 1_555
C43 C42 1_555 1_555
C44 C39 1_555 1_555
C45 C35 1_555 1_555
C46 C45 1_555 1_555
C47 C46 1_555 1_555
C48 C47 1_555 1_555
C49 C48 1_555 1_555
C50 C45 1_555 1_555
C51 C38 1_555 1_555
C52 C51 1_555 1_555
C53 C52 1_555 1_555
C54 C53 1_555 1_555
C55 C54 1_555 1_555
C56 C51 1_555 1_555
C57 C38 1_555 1_555
C58 C57 1_555 1_555
C59 C58 1_555 1_555
C60 C59 1_555 1_555
C61 C60 1_555 1_555
C62 C57 1_555 1_555
O8 C36 1_555 1_555
C63 O8 1_555 1_555
C64 C63 1_555 1_555
C65 C63 1_555 1_555
O9 C37 1_555 1_555
F5 C42 1_555 1_555
F6 C48 1_555 1_555
F7 C54 1_555 1_555
F8 C60 1_555 1_555
H1 C2 1_555 1_555
H2 C3 1_555 1_555
H3 C6 1_555 1_555
H4 C7 1_555 1_555
H5 C9 1_555 1_555
H6 C10 1_555 1_555
H7 C12 1_555 1_555
H8 C13 1_555 1_555
H9 C15 1_555 1_555
H10 C16 1_555 1_555
H11 C18 1_555 1_555
H12 C19 1_555 1_555
H13 C21 1_555 1_555
H14 C22 1_555 1_555
H15 C24 1_555 1_555
H16 C25 1_555 1_555
H17 C27 1_555 1_555
H18 C28 1_555 1_555
H19 C30 1_555 1_555
H20 C30 1_555 1_555
H21 C30 1_555 1_555
H22 C31 1_555 1_555
H23 C31 1_555 1_555
H24 C31 1_555 1_555
H25 C36 1_555 1_555
H26 C37 1_555 1_555
H27 C40 1_555 1_555
H28 C41 1_555 1_555
H29 C43 1_555 1_555
H30 C44 1_555 1_555
H31 C46 1_555 1_555
H32 C47 1_555 1_555
H33 C49 1_555 1_555
H34 C50 1_555 1_555
H35 C52 1_555 1_555
H36 C53 1_555 1_555
H37 C55 1_555 1_555
H38 C56 1_555 1_555
H39 C58 1_555 1_555
H40 C59 1_555 1_555
H41 C61 1_555 1_555
H42 C62 1_555 1_555
H43 C64 1_555 1_555
H44 C64 1_555 1_555
H45 C64 1_555 1_555
H46 C65 1_555 1_555
H47 C65 1_555 1_555
H48 C65 1_555 1_555
C9 C10 1_555 1_555
C15 C16 1_555 1_555
C21 C22 1_555 1_555
C27 C28 1_555 1_555
C29 O4 1_555 1_555
C43 C44 1_555 1_555
C49 C50 1_555 1_555
C55 C56 1_555 1_555
C61 C62 1_555 1_555
C63 O9 1_555 1_555

#END
