
#######################################################################
#
#                 Cambridge Crystallographic Data Centre
#                                CCDC 
#
#######################################################################
#
# If this CIF has been generated from an entry in the Cambridge 
# Structural Database, then it will include bibliographic, chemical, 
# crystal, experimental, refinement or atomic coordinate data resulting 
# from the CCDC's data processing and validation procedures.
#
#######################################################################

data_EFARIO
_chemical_name_common            'PDB Chemical Component code: DA1'
_chemical_formula_moiety         'C5 H7 N3'
_chemical_name_systematic        2,5-Diaminopyridine
_symmetry_cell_setting           orthorhombic
_symmetry_space_group_name_H-M   'P b c a'
_symmetry_Int_Tables_number      61
_space_group_name_Hall           '-P 2ac 2ab'
loop_
_symmetry_equiv_pos_site_id
_symmetry_equiv_pos_as_xyz
1 x,y,z
2 1/2-x,-y,1/2+z
3 -x,1/2+y,1/2-z
4 1/2+x,1/2-y,-z
5 -x,-y,-z
6 1/2+x,y,1/2-z
7 x,1/2-y,1/2+z
8 1/2-x,1/2+y,z
_cell_length_a                   11.4447(11)
_cell_length_b                   7.1447(7)
_cell_length_c                   12.8030(12)
_cell_angle_alpha                90
_cell_angle_beta                 90
_cell_angle_gamma                90
_cell_volume                     1046.89
_exptl_crystal_colour            red
_exptl_crystal_description       prism
_cell_formula_units_Z            8
loop_
_atom_site_label
_atom_site_type_symbol
_atom_site_fract_x
_atom_site_fract_y
_atom_site_fract_z
N1 N 0.46050(8) 0.50612(15) 0.35845(8)
N2 N 0.36236(10) 0.66538(15) 0.49098(8)
H1 H 0.4111(14) 0.610(2) 0.5333(13)
H2 H 0.2925(15) 0.674(2) 0.5190(12)
N3 N 0.38898(10) 0.41571(15) 0.07954(8)
H3 H 0.3841(13) 0.510(2) 0.0337(12)
H4 H 0.4559(15) 0.352(2) 0.0701(12)
C1 C 0.36402(10) 0.59703(16) 0.38919(9)
C2 C 0.27102(10) 0.63298(17) 0.32018(9)
H5 H 0.2045 0.6952 0.3433
C3 C 0.28001(10) 0.57463(16) 0.21780(9)
H6 H 0.2192 0.5971 0.1712
C4 C 0.38092(10) 0.48140(16) 0.18414(9)
C5 C 0.46769(10) 0.45101(17) 0.25771(9)
H7 H 0.5350 0.3889 0.2364
loop_
_geom_bond_atom_site_label_1
_geom_bond_atom_site_label_2
_geom_bond_site_symmetry_1
_geom_bond_site_symmetry_2
N1 C1 1_555 1_555
N2 H1 1_555 1_555
H2 N2 1_555 1_555
N3 H3 1_555 1_555
H4 N3 1_555 1_555
C1 N2 1_555 1_555
C2 C1 1_555 1_555
H5 C2 1_555 1_555
C3 C2 1_555 1_555
H6 C3 1_555 1_555
C4 N3 1_555 1_555
C5 N1 1_555 1_555
H7 C5 1_555 1_555
C3 C4 1_555 1_555
C4 C5 1_555 1_555

#END
