
#######################################################################
#
#                 Cambridge Crystallographic Data Centre
#                                CCDC 
#
#######################################################################
#
# If this CIF has been generated from an entry in the Cambridge 
# Structural Database, then it will include bibliographic, chemical, 
# crystal, experimental, refinement or atomic coordinate data resulting 
# from the CCDC's data processing and validation procedures.
#
#######################################################################

data_MEJXEF
_chemical_formula_moiety         'C27 H53 N2 1+,I1 1-'
_chemical_name_systematic        
'1-Octadecyl-2,3,4,6,7,8,9,10-octahydro-pyrimido(1,2-a)azepin-1-ium iodide'
_symmetry_cell_setting           monoclinic
_symmetry_space_group_name_H-M   'P 21/n'
_symmetry_Int_Tables_number      14
_space_group_name_Hall           '-P 2yn'
loop_
_symmetry_equiv_pos_site_id
_symmetry_equiv_pos_as_xyz
1 x,y,z
2 1/2-x,1/2+y,1/2-z
3 -x,-y,-z
4 1/2+x,1/2-y,1/2+z
_cell_length_a                   6.9488(5)
_cell_length_b                   63.300(5)
_cell_length_c                   7.0619(17)
_cell_angle_alpha                90
_cell_angle_beta                 108.751(14)
_cell_angle_gamma                90
_cell_volume                     2941.38
_exptl_crystal_colour            yellow
_chemical_melting_point          111-112deg.C
_cell_formula_units_Z            4
loop_
_atom_site_label
_atom_site_type_symbol
_atom_site_fract_x
_atom_site_fract_y
_atom_site_fract_z
I1 I 0.03078(17) 0.192455(16) 0.04874(16)
N1 N 1.5274(18) 0.17346(19) -0.3652(17)
C1 C 1.664(3) 0.1619(3) -0.442(3)
H1 H 1.7879 0.1592 -0.3325
H2 H 1.6027 0.1484 -0.4908
C2 C 1.713(4) 0.1719(3) -0.592(3)
H3 H 1.6260 0.1660 -0.7173
H4 H 1.8510 0.1679 -0.5795
C3 C 1.701(3) 0.1942(2) -0.611(2)
H5 H 1.8337 0.2002 -0.5422
H6 H 1.6654 0.1979 -0.7511
N2 N 1.5576(17) 0.20333(16) -0.5322(17)
C4 C 1.494(3) 0.2254(2) -0.601(2)
H7 H 1.3468 0.2261 -0.6529
H8 H 1.5463 0.2291 -0.7088
C5 C 1.573(3) 0.2413(2) -0.429(2)
H9 H 1.7086 0.2371 -0.3476
H10 H 1.5828 0.2551 -0.4849
C6 C 1.438(3) 0.2429(2) -0.297(3)
H11 H 1.4945 0.2535 -0.1952
H12 H 1.3045 0.2477 -0.3783
C7 C 1.417(3) 0.2225(2) -0.199(2)
H13 H 1.3317 0.2249 -0.1157
H14 H 1.5502 0.2183 -0.1109
C8 C 1.328(2) 0.2043(2) -0.341(2)
H15 H 1.2661 0.1943 -0.2734
H16 H 1.2209 0.2097 -0.4557
C9 C 1.477(2) 0.1931(2) -0.411(2)
C10 C 1.490(2) 0.1632(2) -0.191(2)
H17 H 1.4629 0.1742 -0.1067
H18 H 1.6134 0.1560 -0.1131
C11 C 1.317(2) 0.1474(2) -0.238(2)
H19 H 1.1914 0.1544 -0.3136
H20 H 1.3426 0.1361 -0.3197
C12 C 1.298(3) 0.1385(2) -0.050(2)
H21 H 1.3002 0.1501 0.0404
H22 H 1.4159 0.1298 0.0122
C13 C 1.080(3) 0.1214(2) 0.131(3)
H23 H 1.1999 0.1143 0.2174
H24 H 1.0708 0.1349 0.1922
C14 C 1.110(2) 0.1254(2) -0.070(3)
H25 H 1.1219 0.1120 -0.1321
H26 H 0.9920 0.1327 -0.1576
C15 C 0.896(3) 0.1085(2) 0.126(3)
H27 H 0.7766 0.1151 0.0346
H28 H 0.9090 0.0946 0.0733
C16 C 0.864(3) 0.1058(3) 0.321(3)
H29 H 0.8468 0.1197 0.3708
H30 H 0.9859 0.0997 0.4131
C17 C 0.685(3) 0.0924(3) 0.324(3)
H31 H 0.5634 0.0984 0.2303
H32 H 0.7031 0.0784 0.2751
C18 C 0.650(3) 0.0898(3) 0.515(3)
H33 H 0.6292 0.1037 0.5626
H34 H 0.7734 0.0841 0.6100
C19 C 0.474(3) 0.0758(3) 0.523(3)
H35 H 0.3507 0.0812 0.4260
H36 H 0.4961 0.0618 0.4786
C20 C 0.434(3) 0.0735(3) 0.715(3)
H37 H 0.4072 0.0874 0.7582
H38 H 0.5576 0.0683 0.8135
C21 C 0.264(3) 0.0592(3) 0.716(3)
H39 H 0.2894 0.0454 0.6693
H40 H 0.1401 0.0646 0.6194
C22 C 0.226(3) 0.0565(3) 0.912(3)
H41 H 0.3478 0.0507 1.0075
H42 H 0.2029 0.0703 0.9600
C23 C -0.164(3) 0.0264(3) 1.107(3)
H43 H -0.2860 0.0332 1.0206
H44 H -0.1551 0.0126 1.0504
C24 C 0.052(3) 0.0426(3) 0.906(3)
H45 H 0.0731 0.0289 0.8540
H46 H -0.0706 0.0486 0.8133
C25 C 0.021(3) 0.0396(3) 1.103(3)
H47 H 0.0103 0.0534 1.1573
H48 H 0.1423 0.0329 1.1919
C26 C -0.185(4) 0.0235(3) 1.304(4)
H49 H -0.1981 0.0373 1.3587
H50 H -0.0616 0.0171 1.3911
C27 C -0.359(4) 0.0104(3) 1.310(4)
H51 H -0.4813 0.0156 1.2140
H52 H -0.3715 0.0110 1.4413
H53 H -0.3370 -0.0040 1.2785
loop_
_geom_bond_atom_site_label_1
_geom_bond_atom_site_label_2
_geom_bond_site_symmetry_1
_geom_bond_site_symmetry_2
N1 C1 1_555 1_555
C1 H1 1_555 1_555
H2 C1 1_555 1_555
C2 C1 1_555 1_555
H3 C2 1_555 1_555
H4 C2 1_555 1_555
C3 C2 1_555 1_555
H5 C3 1_555 1_555
H6 C3 1_555 1_555
N2 C3 1_555 1_555
C4 N2 1_555 1_555
H7 C4 1_555 1_555
H8 C4 1_555 1_555
C5 C4 1_555 1_555
H9 C5 1_555 1_555
H10 C5 1_555 1_555
C6 C5 1_555 1_555
H11 C6 1_555 1_555
H12 C6 1_555 1_555
C7 C6 1_555 1_555
H13 C7 1_555 1_555
H14 C7 1_555 1_555
C8 C7 1_555 1_555
H15 C8 1_555 1_555
H16 C8 1_555 1_555
C9 N1 1_555 1_555
C10 N1 1_555 1_555
H17 C10 1_555 1_555
H18 C10 1_555 1_555
C11 C10 1_555 1_555
H19 C11 1_555 1_555
H20 C11 1_555 1_555
C12 C11 1_555 1_555
H21 C12 1_555 1_555
H22 C12 1_555 1_555
C13 H23 1_555 1_555
H24 C13 1_555 1_555
C14 C12 1_555 1_555
H25 C14 1_555 1_555
H26 C14 1_555 1_555
C15 C13 1_555 1_555
H27 C15 1_555 1_555
H28 C15 1_555 1_555
C16 C15 1_555 1_555
H29 C16 1_555 1_555
H30 C16 1_555 1_555
C17 C16 1_555 1_555
H31 C17 1_555 1_555
H32 C17 1_555 1_555
C18 C17 1_555 1_555
H33 C18 1_555 1_555
H34 C18 1_555 1_555
C19 C18 1_555 1_555
H35 C19 1_555 1_555
H36 C19 1_555 1_555
C20 C19 1_555 1_555
H37 C20 1_555 1_555
H38 C20 1_555 1_555
C21 C20 1_555 1_555
H39 C21 1_555 1_555
H40 C21 1_555 1_555
C22 C21 1_555 1_555
H41 C22 1_555 1_555
H42 C22 1_555 1_555
C23 H43 1_555 1_555
H44 C23 1_555 1_555
C24 C22 1_555 1_555
H45 C24 1_555 1_555
H46 C24 1_555 1_555
C25 C23 1_555 1_555
H47 C25 1_555 1_555
H48 C25 1_555 1_555
C26 C23 1_555 1_555
H49 C26 1_555 1_555
H50 C26 1_555 1_555
C27 C26 1_555 1_555
H51 C27 1_555 1_555
H52 C27 1_555 1_555
H53 C27 1_555 1_555
N2 C9 1_555 1_555
C8 C9 1_555 1_555
C13 C14 1_555 1_555
C24 C25 1_555 1_555

#END
