
#######################################################################
#
#                 Cambridge Crystallographic Data Centre
#                                CCDC 
#
#######################################################################
#
# If this CIF has been generated from an entry in the Cambridge 
# Structural Database, then it will include bibliographic, chemical, 
# crystal, experimental, refinement or atomic coordinate data resulting 
# from the CCDC's data processing and validation procedures.
#
#######################################################################

data_PUTQEB
_chemical_formula_moiety         'H18 Cf1 O9 3+,3(C1 F3 O3 S1 1-)'
_chemical_name_systematic        
'nonaaqua-[^249^Cf]californium tris(trifluoromethanesulfonate)'
_symmetry_cell_setting           hexagonal
_symmetry_space_group_name_H-M   'P 63/m'
_symmetry_Int_Tables_number      176
_space_group_name_Hall           '-P 6c'
loop_
_symmetry_equiv_pos_site_id
_symmetry_equiv_pos_as_xyz
1 x,y,z
2 -y,x-y,z
3 -x+y,-x,z
4 -x,-y,1/2+z
5 y,-x+y,1/2+z
6 x-y,x,1/2+z
7 -x,-y,-z
8 y,-x+y,-z
9 x-y,x,-z
10 x,y,1/2-z
11 -y,x-y,1/2-z
12 -x+y,-x,1/2-z
_cell_length_a                   13.759(2)
_cell_length_b                   13.759(2)
_cell_length_c                   7.5153(12)
_cell_angle_alpha                90
_cell_angle_beta                 90
_cell_angle_gamma                120
_cell_volume                     1232.11
_exptl_crystal_colour            'pale green'
_exptl_crystal_description       needle
_cell_formula_units_Z            2
loop_
_atom_site_label
_atom_site_type_symbol
_atom_site_fract_x
_atom_site_fract_y
_atom_site_fract_z
Cf1 Cf 0.6667 0.3333 0.7500
O1 O 0.7918(2) 0.4560(3) 0.5210(4)
H1 H 0.7703 0.4841 0.4400
H2 H 0.8626 0.4983 0.5264
O2 O 0.8583(4) 0.3467(4) 0.7500
H3 H 0.8981 0.3542 0.6588
O1A O 0.5440(3) 0.3358(4) 0.5210(4)
O1B O 0.6642(4) 0.2082(2) 0.5210(4)
O1I O 0.7918(2) 0.4560(3) 0.9790(4)
O1J O 0.5440(3) 0.3358(4) 0.9790(4)
O1K O 0.6642(4) 0.2082(2) 0.9790(4)
H1A H 0.5159 0.2862 0.4400
H1B H 0.7138 0.2297 0.4400
H1I H 0.7703 0.4841 1.0600
H1J H 0.5159 0.2862 1.0600
H1K H 0.7138 0.2297 1.0600
H2A H 0.5017 0.3643 0.5264
H2B H 0.6357 0.1374 0.5264
H2I H 0.8626 0.4983 0.9736
H2J H 0.5017 0.3643 0.9736
H2K H 0.6357 0.1374 0.9736
O2A O 0.6533(4) 0.5116(6) 0.7500
O2B O 0.4884(6) 0.1417(4) 0.7500
H3I H 0.8981 0.3542 0.8412
H3A H 0.6458 0.5439 0.6588
H3J H 0.6458 0.5439 0.8412
H3B H 0.4561 0.1019 0.6588
H3K H 0.4561 0.1019 0.8412
S1 S 0.31828(14) 0.38229(14) 0.7500
F1 F 0.1510(5) 0.2072(5) 0.6089(8)
F2 F 0.2665(7) 0.1737(5) 0.7500
O3 O 0.3801(3) 0.3977(4) 0.5891(5)
O4 O 0.2530(5) 0.4381(5) 0.7500
C1 C 0.2138(9) 0.2318(9) 0.7500
F1I F 0.1510(5) 0.2072(5) 0.8911(8)
O3I O 0.3801(3) 0.3977(4) 0.9109(5)
loop_
_geom_bond_atom_site_label_1
_geom_bond_atom_site_label_2
_geom_bond_site_symmetry_1
_geom_bond_site_symmetry_2
Cf1 O1 1_555 1_555
O1 H1 1_555 1_555
H2 O1 1_555 1_555
O2 Cf1 1_555 1_555
H3 O2 1_555 1_555
S1 O3 1_555 1_555
F1 C1 1_555 1_555
F2 C1 1_555 1_555
O4 S1 1_555 1_555
C1 S1 1_555 1_555
O1A Cf1 1_555 1_555
O1B Cf1 1_555 1_555
O1I Cf1 1_555 1_555
O1J Cf1 1_555 1_555
O1K Cf1 1_555 1_555
H1A O1A 1_555 1_555
H1B O1B 1_555 1_555
H1I O1I 1_555 1_555
H1J O1J 1_555 1_555
H1K O1K 1_555 1_555
H2A O1A 1_555 1_555
H2B O1B 1_555 1_555
H2I O1I 1_555 1_555
H2J O1J 1_555 1_555
H2K O1K 1_555 1_555
O2A Cf1 1_555 1_555
O2B Cf1 1_555 1_555
H3I O2 1_555 1_555
H3A O2A 1_555 1_555
H3J O2A 1_555 1_555
H3B O2B 1_555 1_555
H3K O2B 1_555 1_555
F1I C1 1_555 1_555
O3I S1 1_555 1_555

#END
