
#######################################################################
#
#                 Cambridge Crystallographic Data Centre
#                                CCDC 
#
#######################################################################
#
# If this CIF has been generated from an entry in the Cambridge 
# Structural Database, then it will include bibliographic, chemical, 
# crystal, experimental, refinement or atomic coordinate data resulting 
# from the CCDC's data processing and validation procedures.
#
#######################################################################

data_XISGOX
_chemical_formula_moiety         'C76 H116 N4 O12 Sn4'
_chemical_name_systematic        
bis(\m~3~-oxo)-bis(\m~2~-methoxo)-bis(2-cyano-3-(9-(2-(2-methoxyethoxy)ethyl)-9H-carbazol-3-yl)acrylato)-octabutyl-tetra-tin
_symmetry_cell_setting           triclinic
_symmetry_space_group_name_H-M   'P -1'
_symmetry_Int_Tables_number      2
_space_group_name_Hall           '-P 1'
loop_
_symmetry_equiv_pos_site_id
_symmetry_equiv_pos_as_xyz
1 x,y,z
2 -x,-y,-z
_cell_length_a                   11.1321(8)
_cell_length_b                   20.371(1)
_cell_length_c                   21.0194(2)
_cell_angle_alpha                62.239(1)
_cell_angle_beta                 88.847(1)
_cell_angle_gamma                74.372(1)
_cell_volume                     4030.87
_exptl_crystal_colour            yellow
_exptl_crystal_description       block
_cell_formula_units_Z            2
loop_
_atom_site_label
_atom_site_type_symbol
_atom_site_fract_x
_atom_site_fract_y
_atom_site_fract_z
C1 C 1.2329(4) -0.2030(3) 0.7192(3)
H1 H 1.2277 -0.2074 0.6773
C2 C 1.2883(4) -0.2666(3) 0.7847(3)
H2 H 1.3207 -0.3149 0.7869
C3 C 1.2971(5) -0.2608(3) 0.8476(3)
H3 H 1.3363 -0.3048 0.8907
C4 C 1.2481(4) -0.1901(2) 0.8470(3)
H4 H 1.2533 -0.1864 0.8892
C5 C 1.1915(4) -0.1255(2) 0.7820(2)
C6 C 1.1849(4) -0.1319(2) 0.7180(2)
C7 C 1.1320(4) -0.0442(2) 0.7605(2)
C8 C 1.1086(4) -0.0004(2) 0.7968(2)
H5 H 1.1337 -0.0244 0.8463
C9 C 1.0100(4) 0.1146(2) 0.6832(2)
H6 H 0.9692 0.1675 0.6579
C10 C 1.0476(4) 0.0793(2) 0.7591(2)
C11 C 1.0320(4) 0.0731(2) 0.6464(2)
H7 H 1.0072 0.0970 0.5969
C12 C 1.0934(4) -0.0069(2) 0.6858(2)
C13 C 0.9021(4) 0.2541(2) 0.7107(3)
C14 C 0.9646(4) 0.1960(2) 0.7808(2)
C15 C 1.0259(4) 0.1215(2) 0.7998(2)
H8 H 1.0607 0.0915 0.8481
C16 C 0.9598(4) 0.2227(2) 0.8366(2)
C17 C 1.1067(4) -0.0426(3) 0.5856(2)
H9 H 1.0309 0.0004 0.5614
H10 H 1.0952 -0.0872 0.5836
C18 C 1.2190(5) -0.0212(3) 0.5457(2)
H11 H 1.2367 0.0200 0.5513
H12 H 1.2932 -0.0659 0.5654
C19 C 1.2847(5) 0.0231(4) 0.4282(3)
H13 H 1.3575 -0.0221 0.4434
H14 H 1.3100 0.0630 0.4325
C20 C 1.2329(6) 0.0523(4) 0.3507(3)
H15 H 1.3008 0.0512 0.3213
H16 H 1.1844 0.0202 0.3486
C21 C 1.1111(7) 0.1668(4) 0.2483(4)
H17 H 1.1818 0.1644 0.2218
H18 H 1.0645 0.2201 0.2320
H19 H 1.0578 0.1405 0.2405
C22 C 0.3180(4) 1.1479(2) 0.7802(2)
C23 C 0.2662(4) 1.2204(3) 0.7763(3)
H20 H 0.2703 1.2269 0.8170
C24 C 0.2089(4) 1.2816(2) 0.7104(3)
H21 H 0.1726 1.3302 0.7067
C25 C 0.2037(4) 1.2727(3) 0.6481(3)
H22 H 0.1643 1.3153 0.6040
C26 C 0.2569(4) 1.2009(2) 0.6519(2)
H23 H 0.2541 1.1950 0.6107
C27 C 0.3143(4) 1.1378(2) 0.7182(2)
C28 C 0.3755(4) 1.0564(2) 0.7426(2)
C29 C 0.4014(4) 1.0111(2) 0.7081(2)
H24 H 0.3778 1.0337 0.6585
C30 C 0.4631(4) 0.9314(2) 0.7481(2)
C31 C 0.4963(4) 0.8981(2) 0.8241(2)
H25 H 0.5362 0.8452 0.8509
C32 C 0.4711(4) 0.9421(2) 0.8588(2)
H26 H 0.4934 0.9195 0.9085
C33 C 0.4112(4) 1.0214(2) 0.8178(2)
C34 C 0.4868(4) 0.8875(2) 0.7089(2)
H27 H 0.4530 0.9166 0.6603
C35 C 0.5480(4) 0.8127(2) 0.7288(2)
C36 C 0.6093(4) 0.7553(2) 0.8003(3)
C37 C 0.5525(4) 0.7856(2) 0.6728(3)
C38 C 0.2929(7) 0.9457(4) 1.1941(4)
H28 H 0.2228 0.9303 1.2176
H29 H 0.3096 0.9833 1.2052
H30 H 0.3656 0.9011 1.2111
C39 C 0.2417(7) 0.9240(4) 1.1007(4)
H31 H 0.1823 0.8997 1.1303
H32 H 0.3191 0.8838 1.1084
C40 C 0.1875(7) 0.9688(4) 1.0206(4)
H33 H 0.1444 0.9394 1.0093
H34 H 0.1276 1.0182 1.0101
C41 C 0.2984(9) 1.0550(5) 0.9586(6)
H35 H 0.3160 1.0586 1.0017
H36 H 0.2199 1.0941 0.9318
C42 C 0.4070(16) 1.0678(9) 0.9108(9)
H37 H 0.4269 1.1136 0.9052
H38 H 0.4812 1.0237 0.9353
C43 C 1.2427(6) 0.5476(4) 0.7488(4)
H39 H 1.2561 0.4926 0.7758
H40 H 1.3154 0.5598 0.7587
H41 H 1.2287 0.5644 0.6980
C44 C 1.1277(5) 0.5892(4) 0.7713(4)
H42 H 1.1528 0.5901 0.8148
H43 H 1.0950 0.6425 0.7332
C45 C 1.0246(5) 0.5493(3) 0.7856(3)
H44 H 1.0047 0.5455 0.7429
H45 H 1.0572 0.4969 0.8252
C46 C 1.0233(6) 0.7876(4) 0.5747(3)
H46 H 1.0708 0.8165 0.5395
H47 H 1.0762 0.7359 0.6057
H48 H 0.9923 0.8127 0.6032
C47 C 0.9122(5) 0.7838(3) 0.5359(3)
H49 H 0.8603 0.8361 0.5037
H50 H 0.9439 0.7590 0.5067
C48 C 0.7242(4) 0.7332(3) 0.5502(2)
H51 H 0.7588 0.7078 0.5218
H52 H 0.6727 0.7852 0.5167
C49 C 0.8324(4) 0.7393(3) 0.5884(2)
H53 H 0.7987 0.7650 0.6166
H54 H 0.8850 0.6875 0.6216
C50 C 1.1368(6) 0.5842(3) 0.5337(3)
H55 H 1.2214 0.5688 0.5238
H56 H 1.1325 0.6150 0.5574
H57 H 1.0814 0.6142 0.4890
C51 C 1.0980(5) 0.5132(3) 0.5819(3)
H58 H 1.1570 0.4823 0.6258
H59 H 1.1037 0.4823 0.5574
C52 C 0.9668(4) 0.5299(2) 0.6024(3)
H60 H 0.9603 0.5619 0.6257
H61 H 0.9075 0.5595 0.5586
C53 C 0.9298(5) 0.4584(3) 0.6524(3)
H62 H 0.9938 0.4266 0.6941
H63 H 0.9298 0.4287 0.6273
C54 C 0.5340(6) 0.2882(4) 0.6989(4)
H64 H 0.4797 0.2555 0.7123
H65 H 0.5912 0.2726 0.7404
H66 H 0.5807 0.2836 0.6615
C55 C 0.4522(6) 0.3755(3) 0.6699(3)
H67 H 0.3942 0.3912 0.6280
H68 H 0.4032 0.3799 0.7072
C56 C 0.5361(5) 0.4292(3) 0.6488(3)
H69 H 0.5906 0.4206 0.6151
H70 H 0.4835 0.4826 0.6240
C57 C 0.6162(5) 0.4171(3) 0.7126(2)
H71 H 0.6599 0.3622 0.7404
H72 H 0.5604 0.4311 0.7432
C58 C 0.4750(5) 0.2388(4) 0.9193(3)
H73 H 0.4228 0.2108 0.9514
H74 H 0.5034 0.2170 0.8879
H75 H 0.4276 0.2923 0.8908
C59 C 0.5894(4) 0.2327(3) 0.9641(3)
H76 H 0.5607 0.2544 0.9961
H77 H 0.6363 0.1785 0.9937
C60 C 0.6748(4) 0.2759(3) 0.9150(2)
H78 H 0.6255 0.3288 0.8825
H79 H 0.7080 0.2515 0.8857
C61 C 0.7844(4) 0.2772(2) 0.9567(2)
H80 H 0.8335 0.2242 0.9890
H81 H 0.7506 0.3010 0.9865
C62 C 1.1400(11) 0.1682(5) 1.0646(5)
H82 H 1.1021 0.1658 1.0254
H83 H 1.1135 0.1357 1.1092
H84 H 1.2298 0.1505 1.0675
C63 C 1.1002(9) 0.2503(6) 1.0516(5)
H85 H 1.1307 0.2516 1.0937
H86 H 1.0091 0.2691 1.0451
C64 C 1.1502(10) 0.3041(6) 0.9847(5)
H87 H 1.2413 0.2854 0.9921
H88 H 1.1258 0.3555 0.9805
C65 C 1.1041(5) 0.3108(7) 0.9127(5)
H89 H 1.1436 0.2620 0.9130
H90 H 1.1326 0.3505 0.8735
C66 C 0.3690(5) 0.4255(3) 0.9562(3)
H91 H 0.2896 0.4379 0.9732
H92 H 0.4295 0.3852 0.9965
H93 H 0.3594 0.4081 0.9219
C67 C 0.4135(4) 0.4966(3) 0.9205(3)
H94 H 0.4208 0.5147 0.9552
H95 H 0.3512 0.5374 0.8805
C68 C 0.5394(4) 0.4817(2) 0.8924(2)
H96 H 0.6012 0.4405 0.9324
H97 H 0.5316 0.4638 0.8576
C69 C 0.5868(4) 0.5523(2) 0.8565(2)
H98 H 0.5930 0.5706 0.8911
H99 H 0.5254 0.5931 0.8161
C70 C 0.6455(5) 0.5805(3) 0.5209(2)
H100 H 0.6730 0.5287 0.5271
H101 H 0.6985 0.6097 0.4912
H102 H 0.5602 0.6050 0.4979
C71 C 0.8598(5) 0.4331(3) 0.9872(2)
H103 H 0.8351 0.4858 0.9787
H104 H 0.9423 0.4066 1.0139
H105 H 0.8011 0.4073 1.0145
C72 C 0.3487(9) 0.8433(5) 0.3923(4)
H106 H 0.4061 0.8093 0.3783
H107 H 0.3653 0.8927 0.3709
H108 H 0.2640 0.8504 0.3759
C73 C 0.3650(9) 0.8089(5) 0.4723(4)
H109 H 0.3000 0.8415 0.4853
H110 H 0.4450 0.8118 0.4865
C74 C 0.3615(8) 0.7225(4) 0.5192(4)
H111 H 0.2759 0.7206 0.5156
H112 H 0.4131 0.6904 0.5006
C75 C 0.4098(7) 0.6907(10) 0.5990(5)
H113 H 0.3911 0.6419 0.6276
H114 H 0.3642 0.7268 0.6153
C76 C 0.9045(5) 0.5894(3) 0.8039(3)
H115 H 0.8726 0.6425 0.7654
H116 H 0.9226 0.5909 0.8481
N1 N 0.3763(3) 1.0774(2) 0.8393(2)
N2 N 1.1256(3) -0.0605(2) 0.6609(2)
N3 N 0.6617(4) 0.7087(2) 0.8558(2)
N4 N 0.8480(4) 0.3015(2) 0.6551(2)
O1 O 0.9972(3) 0.17607(17) 0.90098(16)
O2 O 0.9121(3) 0.29700(16) 0.81158(16)
O3 O 1.1553(5) 0.1294(3) 0.3254(3)
O4 O 0.2646(4) 0.9783(3) 1.1191(2)
O5 O 1.1864(3) 0.0032(2) 0.47258(19)
O6 O 0.2900(5) 0.9817(3) 0.9774(3)
O7 O 0.8164(3) 0.43766(15) 0.80147(15)
O8 O 0.7015(3) 0.57228(16) 0.70807(16)
O9 O 0.8610(3) 0.43268(16) 0.91992(16)
O10 O 0.6525(3) 0.57746(17) 0.58985(16)
O11 O 0.6053(3) 0.71172(17) 0.69844(16)
O12 O 0.5106(3) 0.83084(18) 0.60947(17)
Sn1 Sn 0.90601(3) 0.338099(16) 0.890121(15)
Sn2 Sn 0.76415(3) 0.532336(16) 0.818172(15)
Sn3 Sn 0.75126(3) 0.478278(16) 0.690719(15)
Sn4 Sn 0.60702(3) 0.671698(16) 0.619967(16)
C77? C 0.2760(16) 0.7917(12) 0.4218(11)
H117? H 0.2210 0.7615 0.4472
H118? H 0.2822 0.7940 0.3753
H119? H 0.2429 0.8433 0.4156
C78? C 0.4028(15) 0.7550(12) 0.4644(9)
H120? H 0.4611 0.7849 0.4427
H121? H 0.4392 0.7017 0.4746
C79? C 0.3536(18) 0.7621(12) 0.5290(9)
H122? H 0.2635 0.7704 0.5247
H123? H 0.3677 0.8078 0.5274
C80? C 0.4108(12) 0.693(2) 0.6024(13)
H124? H 0.3938 0.6477 0.6057
H125? H 0.3716 0.7032 0.6399
C81? C 1.125(3) 0.4961(19) 0.8140(18)
H126? H 1.0903 0.4557 0.8192
H127? H 1.2150 0.4773 0.8201
H128? H 1.0961 0.5400 0.7667
C82? C 1.083(3) 0.5201(17) 0.8707(14)
H129? H 1.0674 0.4762 0.9122
H130? H 1.1516 0.5321 0.8867
C83? C 0.968(3) 0.5884(17) 0.8467(17)
H131? H 0.9940 0.6344 0.8337
H132? H 0.9199 0.5806 0.8873
C84? C 1.179(3) 0.1817(17) 1.0564(15)
H133? H 1.1546 0.1711 1.0194
H134? H 1.1538 0.1489 1.1015
H135? H 1.2686 0.1715 1.0617
C85? C 1.117(3) 0.2646(18) 1.0358(18)
H136? H 1.0265 0.2736 1.0322
H137? H 1.1404 0.2741 1.0742
C86? C 1.146(4) 0.3179(19) 0.9706(17)
H138? H 1.2368 0.3075 0.9743
H139? H 1.1105 0.3694 0.9657
C87? C 1.1015(11) 0.320(2) 0.8995(19)
H140? H 1.1442 0.2711 0.9004
H141? H 1.1225 0.3612 0.8579
C88? C 0.331(2) 0.9009(9) 1.2053(10)
H142? H 0.3890 0.9307 1.1968
H143? H 0.3636 0.8513 1.2476
H144? H 0.2516 0.9281 1.2126
C89? C 0.205(2) 0.9575(14) 1.0866(10)
H145? H 0.1257 0.9569 1.1069
H146? H 0.2188 1.0069 1.0742
C90? C 0.198(2) 0.9484(14) 1.0185(9)
H147? H 0.2360 0.8944 1.0313
H148? H 0.1108 0.9630 0.9997
C91? C 0.315(4) 1.061(2) 0.951(2)
H149? H 0.2498 1.1099 0.9271
H150? H 0.3451 1.0533 0.9977
C92? C 0.400(7) 1.062(4) 0.915(4)
H151? H 0.4639 1.0119 0.9406
H152? H 0.4372 1.1005 0.9134
C93? C 0.883(2) 0.6033(14) 0.7837(15)
H153? H 0.9339 0.5933 0.7493
H154? H 0.8332 0.6574 0.7594
O13? O 0.3140(16) 0.8899(9) 1.1436(8)
O14? O 0.263(2) 0.9966(12) 0.9618(11)
loop_
_geom_bond_atom_site_label_1
_geom_bond_atom_site_label_2
_geom_bond_site_symmetry_1
_geom_bond_site_symmetry_2
C1 H1 1_555 1_555
C2 C1 1_555 1_555
H2 C2 1_555 1_555
C3 C2 1_555 1_555
H3 C3 1_555 1_555
C4 C3 1_555 1_555
H4 C4 1_555 1_555
C5 C4 1_555 1_555
C6 C1 1_555 1_555
C7 C5 1_555 1_555
C8 C7 1_555 1_555
H5 C8 1_555 1_555
C9 H6 1_555 1_555
C10 C8 1_555 1_555
C11 C9 1_555 1_555
H7 C11 1_555 1_555
C12 C7 1_555 1_555
C13 C14 1_555 1_555
C14 C15 1_555 1_555
C15 C10 1_555 1_555
H8 C15 1_555 1_555
C16 C14 1_555 1_555
C17 H9 1_555 1_555
H10 C17 1_555 1_555
C18 C17 1_555 1_555
H11 C18 1_555 1_555
H12 C18 1_555 1_555
C19 H13 1_555 1_555
H14 C19 1_555 1_555
C20 C19 1_555 1_555
H15 C20 1_555 1_555
H16 C20 1_555 1_555
C21 H17 1_555 1_555
H18 C21 1_555 1_555
H19 C21 1_555 1_555
C22 C23 1_555 1_555
C23 H20 1_555 1_555
C24 C23 1_555 1_555
H21 C24 1_555 1_555
C25 C24 1_555 1_555
H22 C25 1_555 1_555
C26 C25 1_555 1_555
H23 C26 1_555 1_555
C27 C22 1_555 1_555
C28 C27 1_555 1_555
C29 C28 1_555 1_555
H24 C29 1_555 1_555
C30 C29 1_555 1_555
C31 C30 1_555 1_555
H25 C31 1_555 1_555
C32 C31 1_555 1_555
H26 C32 1_555 1_555
C33 C28 1_555 1_555
C34 C30 1_555 1_555
H27 C34 1_555 1_555
C35 C34 1_555 1_555
C36 C35 1_555 1_555
C37 C35 1_555 1_555
C38 H28 1_555 1_555
H29 C38 1_555 1_555
H30 C38 1_555 1_555
C39 H31 1_555 1_555
H32 C39 1_555 1_555
C40 C39 1_555 1_555
H33 C40 1_555 1_555
H34 C40 1_555 1_555
C41 H35 1_555 1_555
H36 C41 1_555 1_555
C42 C41 1_555 1_555
H37 C42 1_555 1_555
H38 C42 1_555 1_555
C43 H39 1_555 1_555
H40 C43 1_555 1_555
H41 C43 1_555 1_555
C44 C43 1_555 1_555
H42 C44 1_555 1_555
H43 C44 1_555 1_555
C45 C44 1_555 1_555
H44 C45 1_555 1_555
H45 C45 1_555 1_555
C46 H46 1_555 1_555
H47 C46 1_555 1_555
H48 C46 1_555 1_555
C47 C46 1_555 1_555
H49 C47 1_555 1_555
H50 C47 1_555 1_555
C48 H51 1_555 1_555
H52 C48 1_555 1_555
C49 C47 1_555 1_555
H53 C49 1_555 1_555
H54 C49 1_555 1_555
C50 H55 1_555 1_555
H56 C50 1_555 1_555
H57 C50 1_555 1_555
C51 C50 1_555 1_555
H58 C51 1_555 1_555
H59 C51 1_555 1_555
C52 C51 1_555 1_555
H60 C52 1_555 1_555
H61 C52 1_555 1_555
C53 C52 1_555 1_555
H62 C53 1_555 1_555
H63 C53 1_555 1_555
C54 H64 1_555 1_555
H65 C54 1_555 1_555
H66 C54 1_555 1_555
C55 C54 1_555 1_555
H67 C55 1_555 1_555
H68 C55 1_555 1_555
C56 C55 1_555 1_555
H69 C56 1_555 1_555
H70 C56 1_555 1_555
C57 C56 1_555 1_555
H71 C57 1_555 1_555
H72 C57 1_555 1_555
C58 H73 1_555 1_555
H74 C58 1_555 1_555
H75 C58 1_555 1_555
C59 C58 1_555 1_555
H76 C59 1_555 1_555
H77 C59 1_555 1_555
C60 C59 1_555 1_555
H78 C60 1_555 1_555
H79 C60 1_555 1_555
C61 C60 1_555 1_555
H80 C61 1_555 1_555
H81 C61 1_555 1_555
C62 H82 1_555 1_555
H83 C62 1_555 1_555
H84 C62 1_555 1_555
C63 C62 1_555 1_555
H85 C63 1_555 1_555
H86 C63 1_555 1_555
C64 C63 1_555 1_555
H87 C64 1_555 1_555
H88 C64 1_555 1_555
C65 C64 1_555 1_555
H89 C65 1_555 1_555
H90 C65 1_555 1_555
C66 H91 1_555 1_555
H92 C66 1_555 1_555
H93 C66 1_555 1_555
C67 C66 1_555 1_555
H94 C67 1_555 1_555
H95 C67 1_555 1_555
C68 C67 1_555 1_555
H96 C68 1_555 1_555
H97 C68 1_555 1_555
C69 C68 1_555 1_555
H98 C69 1_555 1_555
H99 C69 1_555 1_555
C70 H100 1_555 1_555
H101 C70 1_555 1_555
H102 C70 1_555 1_555
C71 H103 1_555 1_555
H104 C71 1_555 1_555
H105 C71 1_555 1_555
C72 H106 1_555 1_555
H107 C72 1_555 1_555
H108 C72 1_555 1_555
C73 C72 1_555 1_555
H109 C73 1_555 1_555
H110 C73 1_555 1_555
C74 C73 1_555 1_555
H111 C74 1_555 1_555
H112 C74 1_555 1_555
C75 C74 1_555 1_555
H113 C75 1_555 1_555
H114 C75 1_555 1_555
C76 C45 1_555 1_555
H115 C76 1_555 1_555
H116 C76 1_555 1_555
N1 C22 1_555 1_555
N2 C6 1_555 1_555
N3 C36 1_555 1_555
N4 C13 1_555 1_555
O1 C16 1_555 1_555
O2 C16 1_555 1_555
O3 C20 1_555 1_555
O4 C38 1_555 1_555
O5 C18 1_555 1_555
O6 C40 1_555 1_555
O7 Sn1 1_555 1_555
O8 Sn2 1_555 1_555
O9 C71 1_555 1_555
O10 C70 1_555 1_555
O11 C37 1_555 1_555
O12 C37 1_555 1_555
Sn1 C61 1_555 1_555
Sn2 C69 1_555 1_555
Sn3 C53 1_555 1_555
Sn4 C48 1_555 1_555
C5 C6 1_555 1_555
C9 C10 1_555 1_555
C11 C12 1_555 1_555
C12 N2 1_555 1_555
C17 N2 1_555 1_555
C19 O5 1_555 1_555
C21 O3 1_555 1_555
C26 C27 1_555 1_555
C32 C33 1_555 1_555
C33 N1 1_555 1_555
C39 O4 1_555 1_555
C41 O6 1_555 1_555
C42 N1 1_555 1_555
C48 C49 1_555 1_555
C57 Sn3 1_555 1_555
C65 Sn1 1_555 1_555
C75 Sn4 1_555 1_555
C76 Sn2 1_555 1_555
O2 Sn1 1_555 1_555
O7 Sn2 1_555 1_555
O7 Sn3 1_555 1_555
O8 Sn3 1_555 1_555
O8 Sn4 1_555 1_555
O9 Sn1 1_555 1_555
O9 Sn2 1_555 1_555
O10 Sn3 1_555 1_555
O10 Sn4 1_555 1_555
O11 Sn4 1_555 1_555

#END
